pglib_opf_case9591_goc.m
%%%%%%%%%%%%%%%%%%%%%%%%%%%%%%%%%%%%%%%%%%%%%%%%%%%%%%%%%%%%%%%%%%%%%%%%%%%
%%%%                                                                  %%%%%
%%%%    IEEE PES Power Grid Library - Optimal Power Flow - v20.04     %%%%%
%%%%          (https://github.com/power-grid-lib/pglib-opf)           %%%%%
%%%%               Benchmark Group - Typical Operations               %%%%%
%%%%                         12 - July - 2020                         %%%%%
%%%%                                                                  %%%%%
%%%%%%%%%%%%%%%%%%%%%%%%%%%%%%%%%%%%%%%%%%%%%%%%%%%%%%%%%%%%%%%%%%%%%%%%%%%
%
%   This is a synthetic 9,591 bus case, developed for use in ARPA-e's Grid
%   Optimization Competition, Challenge 1.
%
%   https://gocompetition.energy.gov/challenges/22/datasets
%
%   Copyright (c) 2020 University of Wisconsin-Madison
%   https://dev.epigrids.discovery.wisc.edu/
%   Licensed under the Creative Commons Attribution 4.0 International license,
%   http://creativecommons.org/licenses/by/4.0/
%
function mpc = pglib_opf_case9591_goc
mpc.version = '2';
mpc.baseMVA = 100.0;

%% bus data
%	bus_i	type	Pd	Qd	Gs	Bs	area	Vm	Va	baseKV	zone	Vmax	Vmin
mpc.bus = [
	39875	 1	 0.0	 0.0	 0.0	 0.0	 1	    1.00000	    0.00000	 69.0	 1	    1.10000	    0.90000;
	39876	 1	 0.0	 0.0	 0.0	 0.0	 1	    1.00000	    0.00000	 138.0	 1	    1.10000	    0.90000;
	39877	 1	 0.0	 0.0	 0.0	 0.0	 1	    1.00000	    0.00000	 69.0	 1	    1.10000	    0.90000;
	39878	 2	 0.0	 0.0	 0.0	 0.0	 1	    1.00000	    0.00000	 230.0	 1	    1.10000	    0.90000;
	39879	 1	 0.0	 0.0	 0.0	 0.0	 1	    1.00000	    0.00000	 138.0	 1	    1.10000	    0.90000;
	39880	 2	 0.0	 0.0	 0.0	 0.0	 1	    1.00000	    0.00000	 138.0	 1	    1.10000	    0.90000;
	39881	 1	 0.0	 0.0	 0.0	 0.0	 1	    1.00000	    0.00000	 69.0	 1	    1.10000	    0.90000;
	39882	 1	 0.0	 0.0	 0.0	 0.0	 1	    1.00000	    0.00000	 69.0	 1	    1.10000	    0.90000;
	39883	 1	 0.0	 0.0	 0.0	 0.0	 1	    1.00000	    0.00000	 69.0	 1	    1.10000	    0.90000;
	39884	 1	 0.0	 0.0	 0.0	 0.0	 1	    1.00000	    0.00000	 69.0	 1	    1.10000	    0.90000;
	39885	 1	 0.0	 0.0	 0.0	 0.0	 1	    1.00000	    0.00000	 69.0	 1	    1.10000	    0.90000;
	39886	 1	 0.0	 0.0	 0.0	 0.0	 1	    1.00000	    0.00000	 69.0	 1	    1.10000	    0.90000;
	39887	 1	 0.0	 0.0	 0.0	 0.0	 1	    1.00000	    0.00000	 69.0	 1	    1.10000	    0.90000;
	39888	 1	 0.0	 0.0	 0.0	 0.0	 1	    1.00000	    0.00000	 69.0	 1	    1.10000	    0.90000;
	39889	 1	 0.0	 0.0	 0.0	 0.0	 1	    1.00000	    0.00000	 69.0	 1	    1.10000	    0.90000;
	39890	 1	 0.0	 0.0	 0.0	 0.0	 1	    1.00000	    0.00000	 230.0	 1	    1.10000	    0.90000;
	39891	 1	 0.0	 0.0	 0.0	 0.0	 1	    1.00000	    0.00000	 138.0	 1	    1.10000	    0.90000;
	39892	 1	 0.0	 0.0	 0.0	 0.0	 1	    1.00000	    0.00000	 69.0	 1	    1.10000	    0.90000;
	39893	 1	 0.0	 0.0	 0.0	 0.0	 1	    1.00000	    0.00000	 69.0	 1	    1.10000	    0.90000;
	39894	 1	 0.0	 0.0	 0.0	 0.0	 1	    1.00000	    0.00000	 69.0	 1	    1.10000	    0.90000;
	39895	 1	 0.0	 0.0	 0.0	 0.0	 1	    1.00000	    0.00000	 69.0	 1	    1.10000	    0.90000;
	39896	 2	 0.0	 0.0	 0.0	 0.0	 1	    1.00000	    0.00000	 69.0	 1	    1.10000	    0.90000;
	39897	 1	 0.0	 0.0	 0.0	 0.0	 1	    1.00000	    0.00000	 69.0	 1	    1.10000	    0.90000;
	39898	 1	 0.0	 0.0	 0.0	 0.0	 1	    1.00000	    0.00000	 69.0	 1	    1.10000	    0.90000;
	39899	 1	 0.0	 0.0	 0.0	 0.0	 1	    1.00000	    0.00000	 69.0	 1	    1.10000	    0.90000;
	39900	 1	 0.0	 0.0	 0.0	 0.0	 1	    1.00000	    0.00000	 69.0	 1	    1.10000	    0.90000;
	39901	 1	 0.0	 0.0	 0.0	 0.0	 1	    1.00000	    0.00000	 69.0	 1	    1.10000	    0.90000;
	39902	 1	 0.0	 0.0	 0.0	 0.0	 1	    1.00000	    0.00000	 69.0	 1	    1.10000	    0.90000;
	39903	 1	 0.0	 0.0	 0.0	 0.0	 1	    1.00000	    0.00000	 69.0	 1	    1.10000	    0.90000;
	39904	 1	 0.0	 0.0	 0.0	 0.0	 1	    1.00000	    0.00000	 69.0	 1	    1.10000	    0.90000;
	39905	 1	 0.0	 0.0	 0.0	 0.0	 1	    1.00000	    0.00000	 69.0	 1	    1.10000	    0.90000;
	39906	 1	 0.0	 0.0	 0.0	 0.0	 1	    1.00000	    0.00000	 69.0	 1	    1.10000	    0.90000;
	39907	 1	 0.0	 0.0	 0.0	 0.0	 1	    1.00000	    0.00000	 69.0	 1	    1.10000	    0.90000;
	39908	 2	 0.0	 0.0	 0.0	 0.0	 1	    1.00000	    0.00000	 69.0	 1	    1.10000	    0.90000;
	39909	 1	 0.0	 0.0	 0.0	 0.0	 1	    1.00000	    0.00000	 69.0	 1	    1.10000	    0.90000;
	39910	 1	 0.0	 0.0	 0.0	 0.0	 1	    1.00000	    0.00000	 69.0	 1	    1.10000	    0.90000;
	39911	 1	 0.0	 0.0	 0.0	 0.0	 1	    1.00000	    0.00000	 69.0	 1	    1.10000	    0.90000;
	39912	 1	 0.0	 0.0	 0.0	 0.0	 1	    1.00000	    0.00000	 69.0	 1	    1.10000	    0.90000;
	39913	 1	 0.0	 0.0	 0.0	 0.0	 1	    1.00000	    0.00000	 69.0	 1	    1.10000	    0.90000;
	39914	 1	 0.0	 0.0	 0.0	 0.0	 1	    1.00000	    0.00000	 69.0	 1	    1.10000	    0.90000;
	39915	 1	 0.0	 0.0	 0.0	 0.0	 1	    1.00000	    0.00000	 69.0	 1	    1.10000	    0.90000;
	39916	 1	 0.0	 0.0	 0.0	 0.0	 1	    1.00000	    0.00000	 69.0	 1	    1.10000	    0.90000;
	39917	 1	 0.0	 0.0	 0.0	 0.0	 1	    1.00000	    0.00000	 69.0	 1	    1.10000	    0.90000;
	39918	 1	 0.0	 0.0	 0.0	 0.0	 1	    1.00000	    0.00000	 69.0	 1	    1.10000	    0.90000;
	39919	 1	 0.0	 0.0	 0.0	 0.0	 1	    1.00000	    0.00000	 69.0	 1	    1.10000	    0.90000;
	39920	 1	 0.0	 0.0	 0.0	 0.0	 1	    1.00000	    0.00000	 69.0	 1	    1.10000	    0.90000;
	39921	 1	 0.0	 0.0	 0.0	 0.0	 1	    1.00000	    0.00000	 69.0	 1	    1.10000	    0.90000;
	39922	 1	 0.0	 0.0	 0.0	 0.0	 1	    1.00000	    0.00000	 69.0	 1	    1.10000	    0.90000;
	39923	 1	 0.0	 0.0	 0.0	 0.0	 1	    1.00000	    0.00000	 69.0	 44	    1.10000	    0.90000;
	39924	 1	 0.0	 0.0	 0.0	 0.0	 1	    1.00000	    0.00000	 69.0	 1	    1.10000	    0.90000;
	39925	 1	 0.0	 0.0	 0.0	 0.0	 1	    1.00000	    0.00000	 138.0	 1	    1.10000	    0.90000;
	39926	 1	 0.0	 0.0	 0.0	 0.0	 1	    1.00000	    0.00000	 69.0	 1	    1.10000	    0.90000;
	39927	 1	 0.0	 0.0	 0.0	 0.0	 1	    1.00000	    0.00000	 69.0	 1	    1.10000	    0.90000;
	39928	 1	 0.0	 0.0	 0.0	 0.0	 1	    1.00000	    0.00000	 69.0	 1	    1.10000	    0.90000;
	39929	 1	 0.0	 0.0	 0.0	 0.0	 1	    1.00000	    0.00000	 69.0	 1	    1.10000	    0.90000;
	39930	 1	 0.0	 0.0	 0.0	 0.0	 1	    1.00000	    0.00000	 69.0	 1	    1.10000	    0.90000;
	39931	 1	 0.0	 0.0	 0.0	 0.0	 1	    1.00000	    0.00000	 69.0	 1	    1.10000	    0.90000;
	39932	 1	 0.0	 0.0	 0.0	 0.0	 1	    1.00000	    0.00000	 138.0	 1	    1.10000	    0.90000;
	39933	 1	 0.0	 0.0	 0.0	 0.0	 1	    1.00000	    0.00000	 69.0	 1	    1.10000	    0.90000;
	39934	 1	 0.0	 0.0	 0.0	 0.0	 1	    1.00000	    0.00000	 138.0	 1	    1.10000	    0.90000;
	39935	 1	 0.0	 0.0	 0.0	 0.0	 1	    1.00000	    0.00000	 69.0	 1	    1.10000	    0.90000;
	39936	 1	 0.0	 0.0	 0.0	 0.0	 1	    1.00000	    0.00000	 138.0	 1	    1.10000	    0.90000;
	39937	 1	 0.0	 0.0	 0.0	 0.0	 1	    1.00000	    0.00000	 138.0	 1	    1.10000	    0.90000;
	39938	 1	 0.0	 0.0	 0.0	 0.0	 1	    1.00000	    0.00000	 138.0	 1	    1.10000	    0.90000;
	39939	 1	 0.0	 0.0	 0.0	 0.0	 1	    1.00000	    0.00000	 69.0	 1	    1.10000	    0.90000;
	39940	 1	 0.0	 0.0	 0.0	 0.0	 1	    1.00000	    0.00000	 69.0	 1	    1.10000	    0.90000;
	39941	 1	 0.0	 0.0	 0.0	 0.0	 1	    1.00000	    0.00000	 69.0	 1	    1.10000	    0.90000;
	39942	 1	 0.0	 0.0	 0.0	 0.0	 1	    1.00000	    0.00000	 69.0	 1	    1.10000	    0.90000;
	39943	 1	 0.0	 0.0	 0.0	 0.0	 1	    1.00000	    0.00000	 69.0	 1	    1.10000	    0.90000;
	39944	 1	 0.0	 0.0	 0.0	 0.0	 1	    1.00000	    0.00000	 69.0	 1	    1.10000	    0.90000;
	39945	 1	 0.0	 0.0	 0.0	 0.0	 1	    1.00000	    0.00000	 69.0	 1	    1.10000	    0.90000;
	39946	 1	 0.0	 0.0	 0.0	 0.0	 1	    1.00000	    0.00000	 69.0	 1	    1.10000	    0.90000;
	39947	 1	 0.0	 0.0	 0.0	 0.0	 1	    1.00000	    0.00000	 69.0	 44	    1.10000	    0.90000;
	39948	 1	 0.0	 0.0	 0.0	 0.0	 1	    1.00000	    0.00000	 69.0	 44	    1.10000	    0.90000;
	39949	 1	 0.0	 0.0	 0.0	 0.0	 1	    1.00000	    0.00000	 69.0	 1	    1.10000	    0.90000;
	39950	 1	 0.0	 0.0	 0.0	 0.0	 1	    1.00000	    0.00000	 69.0	 1	    1.10000	    0.90000;
	39951	 1	 0.0	 0.0	 0.0	 0.0	 1	    1.00000	    0.00000	 69.0	 1	    1.10000	    0.90000;
	39952	 1	 0.0	 0.0	 0.0	 0.0	 1	    1.00000	    0.00000	 69.0	 1	    1.10000	    0.90000;
	39953	 1	 0.0	 0.0	 0.0	 0.0	 1	    1.00000	    0.00000	 69.0	 1	    1.10000	    0.90000;
	39954	 1	 0.0	 0.0	 0.0	 0.0	 1	    1.00000	    0.00000	 69.0	 1	    1.10000	    0.90000;
	39955	 1	 0.0	 0.0	 0.0	 0.0	 1	    1.00000	    0.00000	 69.0	 1	    1.10000	    0.90000;
	39956	 1	 0.0	 0.0	 0.0	 0.0	 1	    1.00000	    0.00000	 69.0	 1	    1.10000	    0.90000;
	39957	 1	 0.0	 0.0	 0.0	 0.0	 1	    1.00000	    0.00000	 69.0	 1	    1.10000	    0.90000;
	39958	 1	 0.0	 0.0	 0.0	 0.0	 1	    1.00000	    0.00000	 345.0	 1	    1.10000	    0.90000;
	39959	 1	 0.0	 0.0	 0.0	 0.0	 1	    1.00000	    0.00000	 138.0	 1	    1.10000	    0.90000;
	39960	 1	 0.0	 0.0	 0.0	 0.0	 1	    1.00000	    0.00000	 138.0	 1	    1.10000	    0.90000;
	39961	 1	 0.0	 0.0	 0.0	 0.0	 1	    1.00000	    0.00000	 69.0	 1	    1.10000	    0.90000;
	39962	 1	 0.0	 0.0	 0.0	 0.0	 1	    1.00000	    0.00000	 69.0	 1	    1.10000	    0.90000;
	39963	 1	 0.0	 0.0	 0.0	 0.0	 1	    1.00000	    0.00000	 69.0	 1	    1.10000	    0.90000;
	39964	 1	 0.0	 0.0	 0.0	 0.0	 1	    1.00000	    0.00000	 69.0	 1	    1.10000	    0.90000;
	39965	 1	 0.0	 0.0	 0.0	 0.0	 1	    1.00000	    0.00000	 69.0	 1	    1.10000	    0.90000;
	39966	 1	 0.0	 0.0	 0.0	 0.0	 1	    1.00000	    0.00000	 69.0	 1	    1.10000	    0.90000;
	39967	 1	 0.0	 0.0	 0.0	 0.0	 1	    1.00000	    0.00000	 69.0	 1	    1.10000	    0.90000;
	39968	 1	 0.0	 0.0	 0.0	 0.0	 1	    1.00000	    0.00000	 138.0	 1	    1.10000	    0.90000;
	39969	 1	 0.0	 0.0	 0.0	 0.0	 1	    1.00000	    0.00000	 69.0	 1	    1.10000	    0.90000;
	39970	 1	 0.0	 0.0	 0.0	 0.0	 1	    1.00000	    0.00000	 138.0	 1	    1.10000	    0.90000;
	39971	 1	 0.0	 0.0	 0.0	 0.0	 1	    1.00000	    0.00000	 69.0	 1	    1.10000	    0.90000;
	39972	 1	 0.0	 0.0	 0.0	 0.0	 1	    1.00000	    0.00000	 69.0	 1	    1.10000	    0.90000;
	39973	 1	 0.0	 0.0	 0.0	 0.0	 1	    1.00000	    0.00000	 69.0	 1	    1.10000	    0.90000;
	39974	 1	 0.0	 0.0	 0.0	 0.0	 1	    1.00000	    0.00000	 230.0	 1	    1.10000	    0.90000;
	39975	 1	 0.0	 0.0	 0.0	 0.0	 1	    1.00000	    0.00000	 69.0	 1	    1.10000	    0.90000;
	39976	 1	 0.0	 0.0	 0.0	 0.0	 1	    1.00000	    0.00000	 69.0	 1	    1.10000	    0.90000;
	39977	 1	 0.0	 0.0	 0.0	 0.0	 1	    1.00000	    0.00000	 69.0	 1	    1.10000	    0.90000;
	39978	 1	 0.0	 0.0	 0.0	 0.0	 1	    1.00000	    0.00000	 69.0	 1	    1.10000	    0.90000;
	39979	 1	 0.0	 0.0	 0.0	 0.0	 1	    1.00000	    0.00000	 69.0	 1	    1.10000	    0.90000;
	39980	 1	 0.0	 0.0	 0.0	 0.0	 1	    1.00000	    0.00000	 69.0	 1	    1.10000	    0.90000;
	39981	 1	 0.0	 0.0	 0.0	 0.0	 1	    1.00000	    0.00000	 138.0	 1	    1.10000	    0.90000;
	39982	 1	 0.0	 0.0	 0.0	 0.0	 1	    1.00000	    0.00000	 69.0	 1	    1.10000	    0.90000;
	39983	 1	 0.0	 0.0	 0.0	 0.0	 1	    1.00000	    0.00000	 69.0	 1	    1.10000	    0.90000;
	39984	 1	 0.0	 0.0	 0.0	 0.0	 1	    1.00000	    0.00000	 69.0	 1	    1.10000	    0.90000;
	39985	 1	 0.0	 0.0	 0.0	 0.0	 1	    1.00000	    0.00000	 69.0	 1	    1.10000	    0.90000;
	39986	 1	 0.0	 0.0	 0.0	 0.0	 1	    1.00000	    0.00000	 69.0	 1	    1.10000	    0.90000;
	39987	 2	 0.0	 0.0	 0.0	 0.0	 1	    1.00000	    0.00000	 230.0	 1	    1.10000	    0.90000;
	39988	 1	 0.0	 0.0	 0.0	 0.0	 1	    1.00000	    0.00000	 138.0	 1	    1.10000	    0.90000;
	39989	 1	 0.0	 0.0	 0.0	 0.0	 1	    1.00000	    0.00000	 69.0	 1	    1.10000	    0.90000;
	39990	 1	 0.0	 0.0	 0.0	 0.0	 1	    1.00000	    0.00000	 69.0	 1	    1.10000	    0.90000;
	39991	 1	 0.0	 0.0	 0.0	 0.0	 1	    1.00000	    0.00000	 69.0	 1	    1.10000	    0.90000;
	39992	 1	 0.0	 0.0	 0.0	 0.0	 1	    1.00000	    0.00000	 69.0	 1	    1.10000	    0.90000;
	39993	 1	 0.0	 0.0	 0.0	 0.0	 1	    1.00000	    0.00000	 69.0	 1	    1.10000	    0.90000;
	39994	 1	 0.0	 0.0	 0.0	 0.0	 1	    1.00000	    0.00000	 138.0	 1	    1.10000	    0.90000;
	39995	 1	 0.0	 0.0	 0.0	 0.0	 1	    1.00000	    0.00000	 69.0	 1	    1.10000	    0.90000;
	39996	 1	 0.0	 0.0	 0.0	 0.0	 1	    1.00000	    0.00000	 69.0	 1	    1.10000	    0.90000;
	39997	 1	 0.0	 0.0	 0.0	 0.0	 1	    1.00000	    0.00000	 69.0	 1	    1.10000	    0.90000;
	39998	 1	 0.0	 0.0	 0.0	 0.0	 1	    1.00000	    0.00000	 69.0	 1	    1.10000	    0.90000;
	39999	 1	 0.0	 0.0	 0.0	 0.0	 1	    1.00000	    0.00000	 69.0	 1	    1.10000	    0.90000;
	40000	 1	 0.0	 0.0	 0.0	 0.0	 1	    1.00000	    0.00000	 69.0	 1	    1.10000	    0.90000;
	40001	 1	 0.0	 0.0	 0.0	 0.0	 1	    1.00000	    0.00000	 69.0	 1	    1.10000	    0.90000;
	40002	 1	 0.0	 0.0	 0.0	 0.0	 1	    1.00000	    0.00000	 69.0	 44	    1.10000	    0.90000;
	40003	 2	 0.0	 0.0	 0.0	 0.0	 1	    1.00000	    0.00000	 69.0	 1	    1.10000	    0.90000;
	40004	 1	 0.0	 0.0	 0.0	 0.0	 1	    1.00000	    0.00000	 138.0	 1	    1.10000	    0.90000;
	40005	 2	 0.0	 0.0	 0.0	 0.0	 1	    1.00000	    0.00000	 69.0	 1	    1.10000	    0.90000;
	40006	 1	 0.0	 0.0	 0.0	 0.0	 1	    1.00000	    0.00000	 69.0	 1	    1.10000	    0.90000;
	40007	 1	 0.0	 0.0	 0.0	 0.0	 1	    1.00000	    0.00000	 69.0	 1	    1.10000	    0.90000;
	40008	 2	 0.0	 0.0	 0.0	 0.0	 1	    1.00000	    0.00000	 69.0	 1	    1.10000	    0.90000;
	40009	 1	 0.0	 0.0	 0.0	 0.0	 1	    1.00000	    0.00000	 69.0	 1	    1.10000	    0.90000;
	40010	 1	 0.0	 0.0	 0.0	 0.0	 1	    1.00000	    0.00000	 138.0	 1	    1.10000	    0.90000;
	40011	 1	 0.0	 0.0	 0.0	 0.0	 1	    1.00000	    0.00000	 69.0	 1	    1.10000	    0.90000;
	40012	 1	 0.0	 0.0	 0.0	 0.0	 1	    1.00000	    0.00000	 69.0	 1	    1.10000	    0.90000;
	40013	 1	 0.0	 0.0	 0.0	 0.0	 1	    1.00000	    0.00000	 69.0	 1	    1.10000	    0.90000;
	40014	 1	 0.0	 0.0	 0.0	 0.0	 1	    1.00000	    0.00000	 69.0	 1	    1.10000	    0.90000;
	40015	 2	 0.0	 0.0	 0.0	 0.0	 1	    1.00000	    0.00000	 69.0	 1	    1.10000	    0.90000;
	40016	 1	 0.0	 0.0	 0.0	 0.0	 1	    1.00000	    0.00000	 69.0	 1	    1.10000	    0.90000;
	40017	 1	 0.0	 0.0	 0.0	 0.0	 1	    1.00000	    0.00000	 69.0	 1	    1.10000	    0.90000;
	40018	 1	 0.0	 0.0	 0.0	 0.0	 1	    1.00000	    0.00000	 69.0	 1	    1.10000	    0.90000;
	40019	 1	 0.0	 0.0	 0.0	 0.0	 1	    1.00000	    0.00000	 69.0	 1	    1.10000	    0.90000;
	40020	 1	 0.0	 0.0	 0.0	 0.0	 1	    1.00000	    0.00000	 69.0	 1	    1.10000	    0.90000;
	40021	 1	 0.0	 0.0	 0.0	 0.0	 1	    1.00000	    0.00000	 69.0	 1	    1.10000	    0.90000;
	40022	 1	 0.0	 0.0	 0.0	 0.0	 1	    1.00000	    0.00000	 69.0	 1	    1.10000	    0.90000;
	40023	 1	 0.0	 0.0	 0.0	 0.0	 1	    1.00000	    0.00000	 69.0	 1	    1.10000	    0.90000;
	40024	 1	 -12.0	 -8.0	 0.0	 0.0	 1	    1.00000	    0.00000	 69.0	 1	    1.10000	    0.90000;
	40025	 1	 0.0	 0.0	 0.0	 0.0	 1	    1.00000	    0.00000	 69.0	 1	    1.10000	    0.90000;
	40026	 1	 0.0	 0.0	 0.0	 0.0	 1	    1.00000	    0.00000	 138.0	 1	    1.10000	    0.90000;
	40027	 1	 0.0	 0.0	 0.0	 0.0	 1	    1.00000	    0.00000	 69.0	 1	    1.10000	    0.90000;
	40028	 1	 0.0	 0.0	 0.0	 0.0	 1	    1.00000	    0.00000	 69.0	 1	    1.10000	    0.90000;
	40029	 1	 0.0	 0.0	 0.0	 0.0	 1	    1.00000	    0.00000	 69.0	 1	    1.10000	    0.90000;
	40030	 1	 0.0	 0.0	 0.0	 0.0	 1	    1.00000	    0.00000	 69.0	 1	    1.10000	    0.90000;
	40031	 1	 0.0	 0.0	 0.0	 0.0	 1	    1.00000	    0.00000	 69.0	 1	    1.10000	    0.90000;
	40032	 1	 0.0	 0.0	 0.0	 0.0	 1	    1.00000	    0.00000	 69.0	 44	    1.10000	    0.90000;
	40033	 1	 0.0	 0.0	 0.0	 0.0	 1	    1.00000	    0.00000	 69.0	 1	    1.10000	    0.90000;
	40034	 1	 0.0	 0.0	 0.0	 0.0	 1	    1.00000	    0.00000	 69.0	 1	    1.10000	    0.90000;
	40035	 1	 0.0	 0.0	 0.0	 0.0	 1	    1.00000	    0.00000	 138.0	 1	    1.10000	    0.90000;
	40036	 1	 0.0	 0.0	 0.0	 0.0	 1	    1.00000	    0.00000	 69.0	 1	    1.10000	    0.90000;
	40037	 1	 0.0	 0.0	 0.0	 0.0	 1	    1.00000	    0.00000	 69.0	 1	    1.10000	    0.90000;
	40038	 1	 0.0	 0.0	 0.0	 0.0	 1	    1.00000	    0.00000	 69.0	 1	    1.10000	    0.90000;
	40039	 1	 0.0	 0.0	 0.0	 0.0	 1	    1.00000	    0.00000	 69.0	 1	    1.10000	    0.90000;
	40040	 1	 0.0	 0.0	 0.0	 0.0	 1	    1.00000	    0.00000	 69.0	 1	    1.10000	    0.90000;
	40041	 1	 0.0	 0.0	 0.0	 0.0	 1	    1.00000	    0.00000	 69.0	 1	    1.10000	    0.90000;
	40042	 1	 0.0	 0.0	 0.0	 0.0	 1	    1.00000	    0.00000	 69.0	 1	    1.10000	    0.90000;
	40043	 1	 0.0	 0.0	 0.0	 0.0	 1	    1.00000	    0.00000	 69.0	 1	    1.10000	    0.90000;
	40044	 1	 0.0	 0.0	 0.0	 0.0	 1	    1.00000	    0.00000	 69.0	 1	    1.10000	    0.90000;
	40045	 1	 0.0	 0.0	 0.0	 0.0	 1	    1.00000	    0.00000	 69.0	 1	    1.10000	    0.90000;
	40046	 1	 0.0	 0.0	 0.0	 0.0	 1	    1.00000	    0.00000	 69.0	 1	    1.10000	    0.90000;
	40047	 1	 0.0	 0.0	 0.0	 0.0	 1	    1.00000	    0.00000	 69.0	 1	    1.10000	    0.90000;
	40048	 1	 0.0	 0.0	 0.0	 0.0	 1	    1.00000	    0.00000	 69.0	 1	    1.10000	    0.90000;
	40049	 1	 0.0	 0.0	 0.0	 0.0	 1	    1.00000	    0.00000	 69.0	 1	    1.10000	    0.90000;
	40050	 1	 0.0	 0.0	 0.0	 0.0	 1	    1.00000	    0.00000	 69.0	 1	    1.10000	    0.90000;
	40051	 1	 0.0	 0.0	 0.0	 0.0	 1	    1.00000	    0.00000	 69.0	 1	    1.10000	    0.90000;
	40052	 1	 0.0	 0.0	 0.0	 0.0	 1	    1.00000	    0.00000	 230.0	 1	    1.10000	    0.90000;
	40053	 1	 0.0	 0.0	 0.0	 0.0	 1	    1.00000	    0.00000	 69.0	 1	    1.10000	    0.90000;
	40054	 1	 0.0	 0.0	 0.0	 0.0	 1	    1.00000	    0.00000	 69.0	 1	    1.10000	    0.90000;
	40055	 1	 0.0	 0.0	 0.0	 0.0	 1	    1.00000	    0.00000	 69.0	 1	    1.10000	    0.90000;
	40056	 2	 0.0	 0.0	 0.0	 0.0	 1	    1.00000	    0.00000	 69.0	 1	    1.10000	    0.90000;
	40057	 1	 0.0	 0.0	 0.0	 0.0	 1	    1.00000	    0.00000	 69.0	 1	    1.10000	    0.90000;
	40058	 1	 0.0	 0.0	 0.0	 0.0	 1	    1.00000	    0.00000	 69.0	 1	    1.10000	    0.90000;
	40059	 2	 0.0	 0.0	 0.0	 0.0	 1	    1.00000	    0.00000	 69.0	 1	    1.10000	    0.90000;
	40060	 1	 0.0	 0.0	 0.0	 0.0	 1	    1.00000	    0.00000	 69.0	 1	    1.10000	    0.90000;
	40061	 1	 0.0	 0.0	 0.0	 0.0	 1	    1.00000	    0.00000	 69.0	 1	    1.10000	    0.90000;
	40062	 1	 0.0	 0.0	 0.0	 0.0	 1	    1.00000	    0.00000	 69.0	 1	    1.10000	    0.90000;
	40063	 1	 0.0	 0.0	 0.0	 0.0	 1	    1.00000	    0.00000	 69.0	 1	    1.10000	    0.90000;
	40064	 1	 0.0	 0.0	 0.0	 0.0	 1	    1.00000	    0.00000	 69.0	 1	    1.10000	    0.90000;
	40065	 1	 0.0	 0.0	 0.0	 0.0	 1	    1.00000	    0.00000	 69.0	 1	    1.10000	    0.90000;
	40066	 1	 0.0	 0.0	 0.0	 0.0	 1	    1.00000	    0.00000	 69.0	 1	    1.10000	    0.90000;
	40067	 1	 0.0	 0.0	 0.0	 0.0	 1	    1.00000	    0.00000	 69.0	 1	    1.10000	    0.90000;
	40068	 1	 0.0	 0.0	 0.0	 0.0	 1	    1.00000	    0.00000	 69.0	 1	    1.10000	    0.90000;
	40069	 1	 0.0	 0.0	 0.0	 0.0	 1	    1.00000	    0.00000	 69.0	 1	    1.10000	    0.90000;
	40070	 2	 0.0	 0.0	 0.0	 0.0	 1	    1.00000	    0.00000	 69.0	 1	    1.10000	    0.90000;
	40071	 1	 0.0	 0.0	 0.0	 0.0	 1	    1.00000	    0.00000	 69.0	 1	    1.10000	    0.90000;
	40072	 1	 0.0	 0.0	 0.0	 0.0	 1	    1.00000	    0.00000	 69.0	 1	    1.10000	    0.90000;
	40073	 1	 0.0	 0.0	 0.0	 0.0	 1	    1.00000	    0.00000	 69.0	 1	    1.10000	    0.90000;
	40074	 1	 0.0	 0.0	 0.0	 0.0	 1	    1.00000	    0.00000	 69.0	 1	    1.10000	    0.90000;
...
];

%% generator data
%	bus	Pg	Qg	Qmax	Qmin	Vg	mBase	status	Pmax	Pmin
mpc.gen = [
	39878	 29.1	 22.65	 145.3	 -100.0	 1.0	 100.0	 1	 58.2	 0.0;
	39880	 53.8	 15.1	 96.9	 -66.7	 1.0	 100.0	 1	 107.6	 0.0;
	39896	 12.7	 0.0	 44.1	 -44.1	 1.0	 100.0	 1	 25.4	 0.0;
	39908	 34.875	 5.95	 38.2	 -26.3	 1.0	 100.0	 1	 63.75	 6.0;
	39908	 34.875	 5.95	 38.2	 -26.3	 1.0	 100.0	 1	 63.75	 6.0;
	39987	 95.3	 10.45	 67.1	 -46.2	 1.0	 100.0	 1	 115.6	 75.0;
	40003	 32.875	 0.0	 25.6	 -25.6	 1.0	 100.0	 1	 63.75	 2.0;
	40005	 43.04	 10.05	 44.6	 -24.5	 1.0	 100.0	 1	 60.35	 25.73;
	40005	 63.665	 14.85	 66.0	 -36.3	 1.0	 100.0	 1	 89.25	 38.08;
	40008	 40.175	 5.35	 34.4	 -23.7	 1.0	 100.0	 1	 60.35	 20.0;
	40015	 34.945	 4.85	 31.2	 -21.5	 1.0	 100.0	 1	 53.89	 16.0;
	40015	 34.775	 4.85	 31.2	 -21.5	 1.0	 100.0	 1	 53.55	 16.0;
	40015	 34.775	 4.85	 31.2	 -21.5	 1.0	 100.0	 1	 53.55	 16.0;
	40015	 24.95	 11.25	 40.5	 -18.0	 1.0	 100.0	 1	 45.9	 4.0;
	40015	 24.5675	 11.25	 40.5	 -18.0	 1.0	 100.0	 1	 45.135	 4.0;
	40056	 20.45	 0.0	 45.6	 -45.6	 1.0	 100.0	 1	 40.9	 0.0;
	40059	 21.105	 13.05	 59.6	 -33.5	 1.0	 100.0	 1	 42.21	 0.0;
	40070	 33.6625	 13.65	 49.1	 -21.8	 1.0	 100.0	 1	 54.825	 12.5;
	40070	 27.5675	 11.25	 40.5	 -18.0	 1.0	 100.0	 1	 45.135	 10.0;
	40077	 28.75	 7.15	 31.0	 -16.7	 1.0	 100.0	 1	 42.5	 15.0;
	40081	 20.475	 10.25	 36.8	 -16.3	 1.0	 100.0	 1	 39.95	 1.0;
	40143	 73.905	 21.4	 92.7	 -49.9	 1.0	 100.0	 1	 117.81	 30.0;
	40143	 40.99	 11.7	 50.6	 -27.2	 1.0	 100.0	 1	 66.98	 15.0;
	40143	 26.325	 10.4	 37.5	 -16.7	 1.0	 100.0	 1	 41.65	 11.0;
	40143	 32.4125	 14.4	 51.8	 -23.0	 1.0	 100.0	 1	 54.825	 10.0;
	40143	 65.835	 13.05	 56.4	 -30.3	 1.0	 100.0	 1	 76.67	 55.0;
	40145	 22.595	 3.15	 20.2	 -13.9	 1.0	 100.0	 1	 35.19	 10.0;
	75435	 437.5	 61.3	 393.2	 -270.6	 1.0	 100.0	 1	 600.0	 275.0;
	75437	 405.5	 52.5	 337.0	 -232.0	 1.0	 100.0	 1	 561.0	 250.0;
	75439	 310.2875	 0.0	 223.3	 -223.3	 1.0	 100.0	 1	 560.575	 60.0;
	75440	 113.025	 31.3	 135.4	 -72.8	 1.0	 100.0	 1	 181.05	 45.0;
	75442	 32.25	 15.05	 96.7	 -66.6	 1.0	 100.0	 1	 64.5	 0.0;
	75444	 139.6875	 27.25	 118.0	 -63.5	 1.0	 100.0	 1	 159.375	 120.0;
	75444	 139.475	 27.25	 118.0	 -63.5	 1.0	 100.0	 1	 158.95	 120.0;
	75444	 109.1	 28.0	 121.2	 -65.2	 1.0	 100.0	 1	 163.2	 55.0;
	75446	 61.105	 13.2	 84.7	 -58.3	 1.0	 100.0	 1	 122.21	 0.0;
	75448	 121.195	 24.85	 107.5	 -57.8	 1.0	 100.0	 1	 147.39	 95.0;
	75448	 121.025	 24.85	 107.5	 -57.8	 1.0	 100.0	 1	 147.05	 95.0;
	75448	 129.8025	 36.7	 158.7	 -85.3	 1.0	 100.0	 1	 196.605	 63.0;
	75450	 44.0	 0.0	 67.5	 -67.5	 1.0	 100.0	 1	 88.0	 0.0;
	75451	 63.75	 0.0	 66.1	 -66.1	 1.0	 100.0	 1	 127.5	 0.0;
	75454	 0.17	 0.0	 66.1	 -66.1	 1.0	 100.0	 1	 0.34	 0.0;
	75457	 3.52	 0.0	 66.1	 -66.1	 1.0	 100.0	 1	 7.04	 0.0;
	75458	 44.0	 0.0	 66.1	 -66.1	 1.0	 100.0	 1	 88.0	 0.0;
	75459	 90.3	 21.05	 91.1	 -49.0	 1.0	 100.0	 1	 115.6	 65.0;
	75459	 183.72	 26.35	 169.1	 -116.4	 1.0	 100.0	 1	 277.44	 90.0;
	75459	 312.425	 44.1	 282.9	 -194.7	 1.0	 100.0	 1	 374.85	 250.0;
	75461	 72.375	 19.5	 84.3	 -45.3	 1.0	 100.0	 1	 114.75	 30.0;
	75465	 28.125	 0.0	 49.6	 -49.6	 1.0	 100.0	 1	 56.25	 0.0;
	75466	 44.5	 0.0	 44.1	 -44.1	 1.0	 100.0	 1	 89.0	 0.0;
	75467	 37.0	 0.0	 43.7	 -43.7	 1.0	 100.0	 1	 74.0	 0.0;
	75468	 38.61	 7.45	 47.9	 -33.0	 1.0	 100.0	 1	 77.22	 0.0;
	75470	 48.5	 0.0	 43.2	 -43.2	 1.0	 100.0	 1	 97.0	 0.0;
	75477	 129.25	 16.0	 102.7	 -70.7	 1.0	 100.0	 1	 178.5	 80.0;
	75482	 53.9875	 15.05	 65.1	 -35.0	 1.0	 100.0	 1	 87.975	 20.0;
	75482	 31.875	 10.75	 46.5	 -25.0	 1.0	 100.0	 1	 63.75	 0.0;
	75484	 33.175	 5.4	 34.5	 -23.7	 1.0	 100.0	 1	 60.35	 6.0;
	75484	 39.7625	 6.7	 43.1	 -29.7	 1.0	 100.0	 1	 73.525	 6.0;
	75484	 51.5	 7.85	 50.3	 -34.6	 1.0	 100.0	 1	 97.0	 6.0;
	75486	 40.7125	 8.65	 37.5	 -20.2	 1.0	 100.0	 1	 51.425	 30.0;
	75486	 40.7125	 8.65	 37.5	 -20.2	 1.0	 100.0	 1	 51.425	 30.0;
	75486	 40.5	 8.65	 37.5	 -20.2	 1.0	 100.0	 1	 51.0	 30.0;
	75488	 11.725	 0.0	 54.2	 -54.2	 1.0	 100.0	 1	 23.45	 0.0;
	75490	 24.075	 5.75	 24.8	 -13.3	 1.0	 100.0	 1	 33.15	 15.0;
	75490	 30.25	 7.15	 31.0	 -16.7	 1.0	 100.0	 1	 42.5	 18.0;
	75493	 32.475	 7.05	 30.4	 -16.3	 1.0	 100.0	 1	 39.95	 25.0;
	75493	 57.5	 11.7	 50.6	 -27.2	 1.0	 100.0	 1	 75.0	 40.0;
	75493	 505.0	 69.65	 446.8	 -307.5	 1.0	 100.0	 1	 645.0	 365.0;
	75493	 475.0	 54.8	 351.5	 -241.9	 1.0	 100.0	 1	 600.0	 350.0;
	75497	 19.575	 3.15	 20.1	 -13.8	 1.0	 100.0	 1	 33.15	 6.0;
	75497	 20.0	 3.15	 20.1	 -13.8	 1.0	 100.0	 1	 34.0	 6.0;
	75497	 43.545	 7.35	 47.0	 -32.3	 1.0	 100.0	 1	 81.09	 6.0;
	75500	 22.4975	 5.35	 23.2	 -12.5	 1.0	 100.0	 1	 31.875	 13.12;
	75500	 157.25	 20.7	 132.9	 -91.5	 1.0	 100.0	 1	 217.6	 96.9;
	75502	 22.4975	 5.1	 22.7	 -12.5	 1.0	 100.0	 1	 31.875	 13.12;
	75502	 21.9375	 5.35	 23.2	 -12.5	 1.0	 100.0	 1	 31.875	 12.0;
	75503	 45.175	 5.35	 34.5	 -23.8	 1.0	 100.0	 1	 60.35	 30.0;
	75503	 23.4375	 5.35	 23.2	 -12.5	 1.0	 100.0	 1	 31.875	 15.0;
	75507	 11.65	 13.95	 89.6	 -61.7	 1.0	 100.0	 1	 23.3	 0.0;
	75511	 10.56	 0.0	 58.2	 -58.2	 1.0	 100.0	 1	 21.12	 0.0;
	75513	 96.195	 25.15	 108.8	 -58.5	 1.0	 100.0	 1	 147.39	 45.0;
	75513	 41.875	 10.75	 46.5	 -25.0	 1.0	 100.0	 1	 63.75	 20.0;
	75514	 22.9375	 5.35	 23.2	 -12.5	 1.0	 100.0	 1	 31.875	 14.0;
	75517	 80.6825	 21.3	 92.2	 -49.6	 1.0	 100.0	 1	 116.365	 45.0;
	75517	 25.85	 7.15	 31.0	 -16.7	 1.0	 100.0	 1	 42.5	 9.2;
	75519	 17.655	 0.0	 70.8	 -70.8	 1.0	 100.0	 1	 35.31	 0.0;
	75523	 821.8	 92.45	 593.2	 -408.3	 1.0	 100.0	 1	 986.0	 657.6;
	75524	 822.05	 92.45	 593.2	 -408.3	 1.0	 100.0	 1	 986.0	 658.1;
	75529	 563.5	 88.35	 566.7	 -390.0	 1.0	 100.0	 1	 992.0	 135.0;
	75529	 563.0	 88.35	 566.7	 -390.0	 1.0	 100.0	 1	 992.0	 134.0;
	75533	 633.05	 85.95	 551.3	 -379.4	 1.0	 100.0	 1	 968.0	 298.1;
	75537	 475.0	 0.0	 349.3	 -349.3	 1.0	 100.0	 1	 800.0	 150.0;
	75537	 475.0	 0.0	 349.3	 -349.3	 1.0	 100.0	 1	 800.0	 150.0;
	75538	 466.0	 0.0	 349.3	 -349.3	 1.0	 100.0	 1	 800.0	 132.0;
	75538	 466.0	 0.0	 349.3	 -349.3	 1.0	 100.0	 1	 800.0	 132.0;
	75541	 467.5	 67.4	 432.4	 -297.6	 1.0	 100.0	 1	 610.0	 325.0;
	75541	 467.5	 67.4	 432.4	 -297.6	 1.0	 100.0	 1	 610.0	 325.0;
	75543	 340.2875	 49.85	 319.7	 -220.0	 1.0	 100.0	 1	 560.575	 120.0;
	75543	 333.275	 49.85	 319.7	 -220.0	 1.0	 100.0	 1	 546.55	 120.0;
	75546	 420.0	 49.8	 319.4	 -219.8	 1.0	 100.0	 1	 600.0	 240.0;
	75546	 389.6625	 49.8	 319.4	 -219.8	 1.0	 100.0	 1	 539.325	 240.0;
	75549	 402.5	 47.9	 307.3	 -211.5	 1.0	 100.0	 1	 555.0	 250.0;
	75549	 387.395	 47.9	 307.3	 -211.5	 1.0	 100.0	 1	 524.79	 250.0;
	75549	 387.055	 89.5	 387.4	 -208.4	 1.0	 100.0	 1	 524.11	 250.0;
	75551	 412.0125	 46.6	 299.0	 -205.8	 1.0	 100.0	 1	 524.025	 300.0;
	75553	 212.7825	 36.8	 236.3	 -162.7	 1.0	 100.0	 1	 330.565	 95.0;
	75555	 287.23	 63.15	 273.3	 -147.0	 1.0	 100.0	 1	 329.46	 245.0;
	75558	 258.95	 55.7	 241.0	 -129.6	 1.0	 100.0	 1	 317.9	 200.0;
	75558	 407.875	 46.55	 298.6	 -205.5	 1.0	 100.0	 1	 505.75	 310.0;
	75559	 21.15	 5.45	 23.6	 -12.7	 1.0	 100.0	 1	 32.3	 10.0;
	75559	 21.15	 5.45	 23.6	 -12.7	 1.0	 100.0	 1	 32.3	 10.0;
	75559	 21.15	 5.45	 23.6	 -12.7	 1.0	 100.0	 1	 32.3	 10.0;
	75559	 20.9375	 5.45	 23.6	 -12.7	 1.0	 100.0	 1	 31.875	 10.0;
	75559	 227.97	 51.1	 226.9	 -124.7	 1.0	 100.0	 1	 306.34	 149.6;
	75560	 196.675	 51.65	 223.4	 -120.1	 1.0	 100.0	 1	 298.35	 95.0;
	75562	 199.98	 46.75	 202.3	 -108.8	 1.0	 100.0	 1	 269.96	 130.0;
	75562	 213.41	 50.9	 220.2	 -118.4	 1.0	 100.0	 1	 296.82	 130.0;
	75565	 43.5	 22.65	 145.3	 -100.0	 1.0	 100.0	 1	 87.0	 0.0;
	75567	 141.525	 29.2	 138.2	 -79.8	 1.0	 100.0	 1	 189.72	 93.33;
	75567	 220.5825	 48.9	 217.2	 -119.4	 1.0	 100.0	 1	 297.925	 143.24;
	75568	 151.8625	 16.85	 108.1	 -74.4	 1.0	 100.0	 1	 185.725	 118.0;
	75568	 54.15	 9.4	 45.8	 -27.0	 1.0	 100.0	 1	 66.3	 42.0;
	75568	 76.8125	 16.25	 70.4	 -37.9	 1.0	 100.0	 1	 95.625	 58.0;
	75569	 72.8625	 16.4	 105.3	 -72.5	 1.0	 100.0	 1	 145.725	 0.0;
	75570	 146.8575	 27.4	 118.5	 -63.7	 1.0	 100.0	 1	 159.715	 134.0;
	75570	 161.6025	 30.05	 130.1	 -70.0	 1.0	 100.0	 1	 176.205	 147.0;
	75572	 43.0	 15.1	 96.9	 -66.7	 1.0	 100.0	 1	 86.0	 0.0;
	75574	 134.5325	 28.5	 123.3	 -66.3	 1.0	 100.0	 1	 169.065	 100.0;
	75576	 45.54	 14.95	 95.9	 -66.0	 1.0	 100.0	 1	 91.08	 0.0;
	75576	 64.35	 14.95	 95.9	 -66.0	 1.0	 100.0	 1	 128.7	 0.0;
	75578	 130.92	 27.5	 119.0	 -64.0	 1.0	 100.0	 1	 161.84	 100.0;
	75581	 113.7225	 34.45	 130.1	 -61.2	 1.0	 100.0	 1	 155.805	 71.64;
	75581	 116.035	 35.15	 132.8	 -62.5	 1.0	 100.0	 1	 158.95	 73.12;
	75581	 166.7125	 42.85	 185.4	 -99.7	 1.0	 100.0	 1	 238.425	 95.0;
	75581	 342.0675	 85.7	 370.9	 -199.5	 1.0	 100.0	 1	 504.135	 180.0;
	75582	 100.0	 26.25	 113.6	 -61.1	 1.0	 100.0	 1	 153.0	 47.0;
	75582	 100.0	 26.25	 113.6	 -61.1	 1.0	 100.0	 1	 153.0	 47.0;
	75582	 101.4025	 26.25	 113.6	 -61.1	 1.0	 100.0	 1	 155.805	 47.0;
	75582	 100.0	 26.25	 113.6	 -61.1	 1.0	 100.0	 1	 153.0	 47.0;
	75582	 101.4025	 26.25	 113.6	 -61.1	 1.0	 100.0	 1	 155.805	 47.0;
	75582	 101.4025	 26.25	 113.6	 -61.1	 1.0	 100.0	 1	 155.805	 47.0;
	75584	 120.8625	 25.8	 111.6	 -60.0	 1.0	 100.0	 1	 151.725	 90.0;
	75584	 121.5	 25.8	 111.6	 -60.0	 1.0	 100.0	 1	 153.0	 90.0;
	75586	 124.5875	 25.55	 110.6	 -59.5	 1.0	 100.0	 1	 149.175	 100.0;
	75586	 161.0	 49.45	 213.9	 -115.0	 1.0	 100.0	 1	 272.0	 50.0;
	75587	 116.5	 22.6	 97.9	 -52.7	 1.0	 100.0	 1	 133.0	 100.0;
	75587	 116.5	 22.6	 97.9	 -52.7	 1.0	 100.0	 1	 133.0	 100.0;
	75588	 112.5	 0.0	 0.0	 0.0	 1.0	 100.0	 1	 125.0	 100.0;
	75589	 16.05	 0.0	 66.1	 -66.1	 1.0	 100.0	 1	 32.1	 0.0;
	75592	 92.8	 19.5	 84.3	 -45.3	 1.0	 100.0	 1	 115.6	 70.0;
	75592	 184.155	 40.15	 173.8	 -93.5	 1.0	 100.0	 1	 228.31	 140.0;
	75592	 238.5025	 52.1	 225.5	 -121.3	 1.0	 100.0	 1	 302.005	 175.0;
	75593	 101.875	 10.2	 65.4	 -45.0	 1.0	 100.0	 1	 114.75	 89.0;
	75593	 101.875	 10.2	 65.4	 -45.0	 1.0	 100.0	 1	 114.75	 89.0;
	75595	 90.375	 10.2	 65.4	 -45.0	 1.0	 100.0	 1	 114.75	 66.0;
	75595	 89.95	 10.2	 65.4	 -45.0	 1.0	 100.0	 1	 113.9	 66.0;
	75598	 108.95	 10.2	 65.4	 -45.0	 1.0	 100.0	 1	 113.9	 104.0;
	75598	 109.375	 10.2	 65.4	 -45.0	 1.0	 100.0	 1	 114.75	 104.0;
	75598	 109.375	 10.2	 65.4	 -45.0	 1.0	 100.0	 1	 114.75	 104.0;
	75598	 108.95	 10.2	 65.4	 -45.0	 1.0	 100.0	 1	 113.9	 104.0;
	75599	 80.0	 16.35	 70.7	 -38.0	 1.0	 100.0	 1	 110.0	 50.0;
	75599	 67.95	 16.35	 70.7	 -38.0	 1.0	 100.0	 1	 96.9	 39.0;
	75599	 67.95	 16.35	 70.7	 -38.0	 1.0	 100.0	 1	 96.9	 39.0;
	75599	 67.95	 16.35	 70.7	 -38.0	 1.0	 100.0	 1	 96.9	 39.0;
	75601	 71.95	 16.35	 70.7	 -38.0	 1.0	 100.0	 1	 96.9	 47.0;
	75601	 71.78	 16.35	 70.7	 -38.0	 1.0	 100.0	 1	 96.56	 47.0;
	75601	 71.78	 16.35	 70.7	 -38.0	 1.0	 100.0	 1	 96.56	 47.0;
	75602	 62.635	 16.1	 69.7	 -37.5	 1.0	 100.0	 1	 90.27	 35.0;
	75602	 212.4125	 55.5	 240.2	 -129.2	 1.0	 100.0	 1	 309.825	 115.0;
	75603	 48.0	 0.0	 45.0	 -45.0	 1.0	 100.0	 1	 96.0	 0.0;
	75606	 66.0	 14.6	 63.1	 -33.9	 1.0	 100.0	 1	 87.0	 45.0;
	75606	 71.0	 14.6	 63.1	 -33.9	 1.0	 100.0	 1	 97.0	 45.0;
	75606	 71.0	 14.6	 63.1	 -33.9	 1.0	 100.0	 1	 97.0	 45.0;
	75606	 71.0	 14.6	 63.1	 -33.9	 1.0	 100.0	 1	 97.0	 45.0;
	75606	 65.0	 14.6	 63.1	 -33.9	 1.0	 100.0	 1	 85.0	 45.0;
	75607	 32.16	 0.0	 44.3	 -44.3	 1.0	 100.0	 1	 64.32	 0.0;
	75608	 32.05	 0.0	 44.3	 -44.3	 1.0	 100.0	 1	 64.1	 0.0;
	75611	 130.0	 15.65	 100.4	 -69.1	 1.0	 100.0	 1	 170.0	 90.0;
	75611	 61.9525	 0.0	 29.6	 -29.6	 1.0	 100.0	 1	 75.905	 48.0;
	75611	 61.9525	 6.8	 43.7	 -30.1	 1.0	 100.0	 1	 75.905	 48.0;
	75611	 131.425	 32.95	 142.6	 -76.7	 1.0	 100.0	 1	 187.85	 75.0;
	75612	 59.2625	 12.75	 55.2	 -29.7	 1.0	 100.0	 1	 73.525	 45.0;
	75612	 59.2625	 12.75	 55.2	 -29.7	 1.0	 100.0	 1	 73.525	 45.0;
	75612	 60.325	 12.75	 55.2	 -29.7	 1.0	 100.0	 1	 75.65	 45.0;
	75612	 60.325	 12.75	 55.2	 -29.7	 1.0	 100.0	 1	 75.65	 45.0;
	75614	 59.2625	 12.4	 53.6	 -28.8	 1.0	 100.0	 1	 73.525	 45.0;
	75614	 59.2625	 12.4	 53.6	 -28.8	 1.0	 100.0	 1	 73.525	 45.0;
	75614	 59.2625	 12.4	 53.6	 -28.8	 1.0	 100.0	 1	 73.525	 45.0;
	75614	 59.2625	 12.4	 53.6	 -28.8	 1.0	 100.0	 1	 73.525	 45.0;
	75614	 58.2	 12.4	 53.6	 -28.8	 1.0	 100.0	 1	 71.4	 45.0;
	75614	 59.2625	 12.4	 53.6	 -28.8	 1.0	 100.0	 1	 73.525	 45.0;
	75614	 58.2	 12.4	 53.6	 -28.8	 1.0	 100.0	 1	 71.4	 45.0;
	75614	 58.2	 12.4	 53.6	 -28.8	 1.0	 100.0	 1	 71.4	 45.0;
	75615	 44.375	 15.65	 56.3	 -25.0	 1.0	 100.0	 1	 63.75	 25.0;
	75615	 134.86	 33.1	 143.3	 -77.1	 1.0	 100.0	 1	 189.72	 80.0;
	75618	 45.325	 10.15	 44.0	 -23.7	 1.0	 100.0	 1	 58.65	 32.0;
	75618	 44.2625	 10.15	 44.0	 -23.7	 1.0	 100.0	 1	 56.525	 32.0;
	75618	 46.175	 10.15	 44.0	 -23.7	 1.0	 100.0	 1	 60.35	 32.0;
	75618	 46.175	 10.15	 44.0	 -23.7	 1.0	 100.0	 1	 60.35	 32.0;
	75618	 45.325	 10.15	 44.0	 -23.7	 1.0	 100.0	 1	 58.65	 32.0;
...
];

%% generator cost data
%	2	startup	shutdown	n	c(n-1)	...	c0
mpc.gencost = [
	2	 0.0	 0.0	 3	   0.000000	   0.000171	   0.000000;
	2	 0.0	 0.0	 3	   0.000000	   0.000000	   0.000000;
	2	 0.0	 0.0	 3	   0.000000	   0.000391	   0.000000;
	2	 0.0	 0.0	 3	   0.000000	  23.000000	 -15.090000;
	2	 0.0	 0.0	 3	   0.000000	  23.740000	 -15.570000;
	2	 0.0	 0.0	 3	   0.000000	  22.490000	 -197.700000;
	2	 0.0	 0.0	 3	   0.000000	  25.900000	 -28.410000;
	2	 0.0	 0.0	 3	   0.000000	  27.810000	 -57.570000;
	2	 0.0	 0.0	 3	   0.000000	  27.460000	 -118.900000;
	2	 0.0	 0.0	 3	   0.000000	  22.590000	 -31.240000;
	2	 0.0	 0.0	 3	   0.000000	  17.950000	 -42.310000;
	2	 0.0	 0.0	 3	   0.000000	  18.270000	 -42.690000;
	2	 0.0	 0.0	 3	   0.000000	  18.960000	 -44.310000;
	2	 0.0	 0.0	 3	   0.000000	  18.150000	 -20.990000;
	2	 0.0	 0.0	 3	   0.000000	  16.680000	 -18.760000;
	2	 0.0	 0.0	 3	   0.000000	   0.000243	   0.000000;
	2	 0.0	 0.0	 3	   0.000000	   0.000236	   0.000000;
	2	 0.0	 0.0	 3	   0.000000	  25.400000	 -64.590000;
	2	 0.0	 0.0	 3	   0.000000	  26.070000	 -45.700000;
	2	 0.0	 0.0	 3	   0.000000	  29.280000	 -32.440000;
	2	 0.0	 0.0	 3	   0.000000	  22.430000	 -13.390000;
	2	 0.0	 0.0	 3	   0.000000	  27.500000	 -93.550000;
	2	 0.0	 0.0	 3	   0.000000	  28.410000	 -46.000000;
	2	 0.0	 0.0	 3	   0.000000	  27.250000	 -18.950000;
	2	 0.0	 0.0	 3	   0.000000	  29.830000	 -30.330000;
	2	 0.0	 0.0	 3	   0.000000	  29.480000	 -76.210000;
	2	 0.0	 0.0	 3	   0.000000	  23.980000	 -18.570000;
	2	 0.0	 0.0	 3	   0.004127	  18.620000	  -1.851000;
	2	 0.0	 0.0	 3	   0.009589	  15.100000	  -3.887000;
	2	 0.0	 0.0	 3	   0.003196	   3.619000	   0.000000;
	2	 0.0	 0.0	 3	   0.017760	  22.590000	  -1.437000;
	2	 0.0	 0.0	 3	   0.000000	   0.000155	   0.000000;
	2	 0.0	 0.0	 3	   0.000000	  33.050000	 -390.000000;
	2	 0.0	 0.0	 3	   0.000000	  33.580000	 -395.100000;
	2	 0.0	 0.0	 3	   0.018820	  27.000000	  -1.703000;
	2	 0.0	 0.0	 3	   0.000000	   0.000000	   0.000000;
	2	 0.0	 0.0	 3	   0.000000	  24.160000	 -553.100000;
	2	 0.0	 0.0	 3	   0.000000	  23.310000	 -532.500000;
	2	 0.0	 0.0	 3	   0.033880	  16.090000	  -3.534000;
	2	 0.0	 0.0	 3	   0.000000	   0.000113	   0.000000;
	2	 0.0	 0.0	 3	   0.000000	   0.000000	   0.000000;
	2	 0.0	 0.0	 3	   0.000000	   0.018520	   0.000000;
	2	 0.0	 0.0	 3	   0.000000	   0.001381	   0.000000;
	2	 0.0	 0.0	 3	   0.000000	   0.000113	   0.000000;
	2	 0.0	 0.0	 3	   0.000000	  17.240000	 -142.200000;
	2	 0.0	 0.0	 3	   0.006348	  13.280000	   0.000000;
	2	 0.0	 0.0	 3	   0.000000	  18.020000	 -666.800000;
	2	 0.0	 0.0	 3	   0.000000	  26.350000	 -71.640000;
	2	 0.0	 0.0	 3	   0.000000	   0.000177	   0.000000;
	2	 0.0	 0.0	 3	   0.000000	   0.000112	   0.000000;
	2	 0.0	 0.0	 3	   0.000000	   0.000135	   0.000000;
	2	 0.0	 0.0	 3	   0.000000	   0.000129	   0.000000;
	2	 0.0	 0.0	 3	   0.000000	   0.000103	   0.000000;
	2	 0.0	 0.0	 3	   0.000000	  26.920000	 -273.500000;
	2	 0.0	 0.0	 3	   0.000000	  27.360000	 -82.980000;
	2	 0.0	 0.0	 3	   0.000000	  26.300000	   0.000000;
	2	 0.0	 0.0	 3	   0.000000	  25.950000	 -21.310000;
	2	 0.0	 0.0	 3	   0.000000	  26.090000	 -30.080000;
	2	 0.0	 0.0	 3	   0.000000	  26.260000	 -49.070000;
	2	 0.0	 0.0	 3	   0.000000	  21.090000	 -68.640000;
	2	 0.0	 0.0	 3	   0.000000	  20.520000	 -66.790000;
	2	 0.0	 0.0	 3	   0.000000	  21.330000	 -68.740000;
	2	 0.0	 0.0	 3	   0.000000	   0.000423	   0.000000;
	2	 0.0	 0.0	 3	   0.000000	  21.000000	 -39.380000;
	2	 0.0	 0.0	 3	   0.000000	  20.590000	 -58.570000;
	2	 0.0	 0.0	 3	   0.000000	  18.650000	 -25.820000;
	2	 0.0	 0.0	 3	   0.000000	  20.630000	 -84.470000;
	2	 0.0	 0.0	 3	   0.003036	  13.760000	  -2.003000;
	2	 0.0	 0.0	 3	   0.003095	  14.260000	  -2.010000;
	2	 0.0	 0.0	 3	   0.000000	  20.120000	 -12.400000;
	2	 0.0	 0.0	 3	   0.000000	  20.240000	 -12.970000;
	2	 0.0	 0.0	 3	   0.000000	  23.060000	 -20.300000;
	2	 0.0	 0.0	 3	   0.000000	  24.400000	 -15.460000;
	2	 0.0	 0.0	 3	   0.000000	  23.630000	 -200.300000;
	2	 0.0	 0.0	 3	   0.000000	  21.790000	 -12.100000;
	2	 0.0	 0.0	 3	   0.000000	  23.680000	 -11.720000;
	2	 0.0	 0.0	 3	   0.000000	  23.750000	 -66.120000;
	2	 0.0	 0.0	 3	   0.000000	  21.130000	 -16.830000;
	2	 0.0	 0.0	 3	   0.000000	   0.000425	   0.000000;
	2	 0.0	 0.0	 3	   0.000000	   0.000469	   0.000000;
	2	 0.0	 0.0	 3	   0.019170	  18.380000	  -1.452000;
	2	 0.0	 0.0	 3	   0.000000	  23.180000	 -56.410000;
	2	 0.0	 0.0	 3	   0.000000	  22.120000	 -17.050000;
	2	 0.0	 0.0	 3	   0.000000	  25.250000	 -118.800000;
	2	 0.0	 0.0	 3	   0.000000	  25.050000	 -19.050000;
	2	 0.0	 0.0	 3	   0.000000	   0.000282	   0.000000;
	2	 0.0	 0.0	 3	   0.000000	   4.739000	 -749.600000;
	2	 0.0	 0.0	 3	   0.006117	   2.785000	  -8.729000;
	2	 0.0	 0.0	 3	   0.004223	   3.256000	  -1.432000;
	2	 0.0	 0.0	 3	   0.004317	   3.329000	  -1.461000;
	2	 0.0	 0.0	 3	   0.001077	   2.705000	   0.000000;
	2	 0.0	 0.0	 3	   0.001082	   3.150000	   0.000000;
	2	 0.0	 0.0	 3	   0.001060	   3.084000	   0.000000;
	2	 0.0	 0.0	 3	   0.001023	   3.329000	   0.000000;
	2	 0.0	 0.0	 3	   0.001092	   3.552000	   0.000000;
	2	 0.0	 0.0	 3	   0.005478	  22.580000	  -3.089000;
	2	 0.0	 0.0	 3	   0.005125	  21.130000	  -2.890000;
	2	 0.0	 0.0	 3	   0.007171	  20.880000	  -1.642000;
	2	 0.0	 0.0	 3	   0.007591	  22.100000	  -1.717000;
	2	 0.0	 0.0	 3	   0.002095	  23.240000	   0.000000;
	2	 0.0	 0.0	 3	   0.001999	  22.190000	   0.000000;
	2	 0.0	 0.0	 3	   0.002003	  21.310000	   0.000000;
	2	 0.0	 0.0	 3	   0.000000	  24.800000	 -343.800000;
	2	 0.0	 0.0	 3	   0.000000	  23.410000	 -324.100000;
	2	 0.0	 0.0	 3	   0.008172	  22.170000	  -4.484000;
	2	 0.0	 0.0	 3	   0.006254	  17.480000	  -1.006000;
	2	 0.0	 0.0	 3	   0.000000	  22.020000	 -183.300000;
	2	 0.0	 0.0	 3	   0.000000	  19.740000	 -141.600000;
	2	 0.0	 0.0	 3	   0.000000	  21.720000	 -372.300000;
	2	 0.0	 0.0	 3	   0.000000	  56.020000	 -60.530000;
	2	 0.0	 0.0	 3	   0.000000	  54.510000	 -58.900000;
	2	 0.0	 0.0	 3	   0.000000	  53.090000	 -57.370000;
	2	 0.0	 0.0	 3	   0.000000	  56.800000	 -60.240000;
	2	 0.0	 0.0	 3	   0.000000	  22.420000	 -116.700000;
	2	 0.0	 0.0	 3	   0.006149	  20.700000	   0.000000;
	2	 0.0	 0.0	 3	   0.000000	  23.590000	 -257.200000;
	2	 0.0	 0.0	 3	   0.006442	  22.000000	  -1.363000;
	2	 0.0	 0.0	 3	   0.000000	   0.000115	   0.000000;
	2	 0.0	 0.0	 3	   0.000000	  22.790000	 -111.500000;
	2	 0.0	 0.0	 3	   0.000000	  23.110000	 -267.900000;
	2	 0.0	 0.0	 3	   0.000000	  26.720000	 -439.800000;
	2	 0.0	 0.0	 3	   0.000000	  23.370000	 -56.710000;
	2	 0.0	 0.0	 3	   0.000000	  23.330000	 -110.100000;
	2	 0.0	 0.0	 3	   0.000000	   0.000000	   0.000000;
	2	 0.0	 0.0	 3	   0.000000	  27.820000	 -245.800000;
	2	 0.0	 0.0	 3	   0.000000	  28.750000	 -304.100000;
	2	 0.0	 0.0	 3	   0.000000	   0.000116	   0.000000;
	2	 0.0	 0.0	 3	   0.000000	  71.900000	 -62.580000;
	2	 0.0	 0.0	 3	   0.000000	   0.000110	   0.000000;
	2	 0.0	 0.0	 3	   0.000000	   0.000000	   0.000000;
	2	 0.0	 0.0	 3	   0.000000	  62.820000	 -115.200000;
	2	 0.0	 0.0	 3	   0.000000	  27.280000	 -205.800000;
	2	 0.0	 0.0	 3	   0.000000	  29.460000	 -230.800000;
	2	 0.0	 0.0	 3	   0.000000	  25.250000	 -151.600000;
	2	 0.0	 0.0	 3	   0.005028	  22.670000	  -1.457000;
	2	 0.0	 0.0	 3	   0.019100	  43.790000	  -1.507000;
	2	 0.0	 0.0	 3	   0.019150	  43.900000	  -1.511000;
	2	 0.0	 0.0	 3	   0.018680	  42.810000	  -1.480000;
	2	 0.0	 0.0	 3	   0.019300	  44.240000	  -1.523000;
	2	 0.0	 0.0	 3	   0.018920	  43.360000	  -1.499000;
	2	 0.0	 0.0	 3	   0.018240	  41.820000	  -1.446000;
	2	 0.0	 0.0	 3	   0.000000	  25.780000	 -583.900000;
	2	 0.0	 0.0	 3	   0.000000	  24.060000	 -549.700000;
	2	 0.0	 0.0	 3	   0.000000	  22.020000	 -652.000000;
	2	 0.0	 0.0	 3	   0.038260	  12.970000	  -3.985000;
	2	 0.0	 0.0	 3	   0.000000	  73.420000	 -28.560000;
	2	 0.0	 0.0	 3	   0.000000	  73.660000	 -28.650000;
	2	 0.0	 0.0	 3	   0.000000	  70.350000	 -123.700000;
	2	 0.0	 0.0	 3	   0.000000	   0.000310	   0.000000;
	2	 0.0	 0.0	 3	   0.000000	  24.000000	 -126.500000;
	2	 0.0	 0.0	 3	   0.000000	  20.260000	 -107.500000;
	2	 0.0	 0.0	 3	   0.000000	  22.080000	 -196.600000;
	2	 0.0	 0.0	 3	   0.000000	  22.020000	 -152.800000;
	2	 0.0	 0.0	 3	   0.000000	  20.950000	 -145.400000;
	2	 0.0	 0.0	 3	   0.000000	  24.430000	 -148.700000;
	2	 0.0	 0.0	 3	   0.000000	  24.420000	 -147.300000;
	2	 0.0	 0.0	 3	   0.000000	  25.640000	 -156.100000;
	2	 0.0	 0.0	 3	   0.000000	  24.020000	 -147.500000;
	2	 0.0	 0.0	 3	   0.000000	  25.320000	 -155.400000;
	2	 0.0	 0.0	 3	   0.000000	  25.960000	 -158.100000;
	2	 0.0	 0.0	 3	   0.000000	  21.230000	 -80.810000;
	2	 0.0	 0.0	 3	   0.000000	  20.200000	 -56.190000;
	2	 0.0	 0.0	 3	   0.000000	  19.270000	 -53.610000;
	2	 0.0	 0.0	 3	   0.000000	  19.920000	 -55.420000;
	2	 0.0	 0.0	 3	   0.000000	  23.050000	 -92.270000;
	2	 0.0	 0.0	 3	   0.000000	  23.690000	 -94.400000;
	2	 0.0	 0.0	 3	   0.000000	  21.960000	 -87.510000;
	2	 0.0	 0.0	 3	   0.000000	  26.480000	 -103.700000;
	2	 0.0	 0.0	 3	   0.000000	  20.290000	 -143.400000;
	2	 0.0	 0.0	 3	   0.000000	   0.000104	   0.000000;
	2	 0.0	 0.0	 3	   0.000000	  37.650000	 -405.000000;
	2	 0.0	 0.0	 3	   0.088850	  26.160000	  -6.789000;
	2	 0.0	 0.0	 3	   0.085920	  25.300000	  -6.565000;
	2	 0.0	 0.0	 3	   0.090690	  26.700000	  -6.930000;
	2	 0.0	 0.0	 3	   0.000000	  37.690000	 -395.200000;
	2	 0.0	 0.0	 3	   0.000000	   0.000155	   0.000000;
	2	 0.0	 0.0	 3	   0.000000	   0.000156	   0.000000;
	2	 0.0	 0.0	 3	   0.000000	  27.910000	 -208.700000;
	2	 0.0	 0.0	 3	   0.000000	  28.160000	 -86.950000;
	2	 0.0	 0.0	 3	   0.000000	  28.140000	 -86.890000;
	2	 0.0	 0.0	 3	   0.000000	  23.500000	 -18.990000;
	2	 0.0	 0.0	 3	   0.000000	  21.800000	 -47.020000;
	2	 0.0	 0.0	 3	   0.000000	  21.780000	 -46.970000;
	2	 0.0	 0.0	 3	   0.000000	  21.660000	 -48.390000;
	2	 0.0	 0.0	 3	   0.000000	  20.600000	 -46.030000;
	2	 0.0	 0.0	 3	   0.000000	  23.780000	 -40.640000;
	2	 0.0	 0.0	 3	   0.000000	  25.380000	 -43.360000;
	2	 0.0	 0.0	 3	   0.000000	  26.050000	 -44.510000;
	2	 0.0	 0.0	 3	   0.000000	  25.390000	 -43.390000;
	2	 0.0	 0.0	 3	   0.000000	  25.800000	 -42.510000;
	2	 0.0	 0.0	 3	   0.000000	  25.560000	 -43.680000;
	2	 0.0	 0.0	 3	   0.000000	  25.740000	 -42.410000;
	2	 0.0	 0.0	 3	   0.000000	  24.200000	 -39.860000;
	2	 0.0	 0.0	 3	   0.000000	  22.810000	 -49.710000;
	2	 0.0	 0.0	 3	   0.000000	  19.050000	 -58.630000;
	2	 0.0	 0.0	 3	   0.000000	  20.810000	 -35.230000;
	2	 0.0	 0.0	 3	   0.000000	  21.160000	 -34.200000;
	2	 0.0	 0.0	 3	   0.000000	  21.620000	 -37.970000;
	2	 0.0	 0.0	 3	   0.000000	  22.120000	 -38.840000;
	2	 0.0	 0.0	 3	   0.000000	  21.330000	 -36.110000;
...
];

%% branch data
%	fbus	tbus	r	x	b	rateA	rateB	rateC	ratio	angle	status	angmin	angmax
mpc.branch = [
	39875	 43708	 0.049795	 0.15047	 0.0025	 73.75	 73.75	 73.75	 0.0	 0.0	 1	 -30.0	 30.0;
	39876	 44106	 0.00473964	 0.05506	 0.02232	 397.0	 397.0	 397.0	 0.0	 0.0	 1	 -30.0	 30.0;
	39877	 43705	 0.0137014	 0.04906	 0.00101	 88.75	 88.75	 88.75	 0.0	 0.0	 1	 -30.0	 30.0;
	39878	 75668	 0.00311321	 0.04574	 0.08857	 660.0	 660.0	 660.0	 0.0	 0.0	 1	 -30.0	 30.0;
	39878	 76948	 0.00239857	 0.0199	 0.03583	 458.0	 458.0	 458.0	 0.0	 0.0	 1	 -30.0	 30.0;
	39878	 77384	 0.0022425	 0.01775	 0.03535	 458.0	 458.0	 458.0	 0.0	 0.0	 1	 -30.0	 30.0;
	39879	 43441	 0.000993929	 0.01159	 0.00426	 384.0	 384.0	 384.0	 0.0	 0.0	 1	 -30.0	 30.0;
	39879	 76813	 0.00547071	 0.01653	 0.0044	 148.0	 148.0	 148.0	 0.0	 0.0	 1	 -30.0	 30.0;
	39880	 75452	 0.00416464	 0.01714	 0.00971	 294.0	 294.0	 294.0	 0.0	 0.0	 1	 -30.0	 30.0;
	39880	 75520	 0.0010925	 0.01639	 0.00529	 434.0	 434.0	 434.0	 0.0	 0.0	 1	 -30.0	 30.0;
	39881	 43384	 0.168861	 0.47758	 0.0091	 73.75	 73.75	 73.75	 0.0	 0.0	 1	 -30.0	 30.0;
	39881	 43385	 0.152334	 0.43077	 0.00821	 73.75	 73.75	 73.75	 0.0	 0.0	 1	 -30.0	 30.0;
	39882	 43874	 0.04002	 0.11537	 0.00211	 73.75	 73.75	 73.75	 0.0	 0.0	 1	 -30.0	 30.0;
	39882	 43875	 0.00699036	 0.03807	 0.00078	 115.0	 115.0	 115.0	 0.0	 0.0	 1	 -30.0	 30.0;
	39882	 43877	 0.0138246	 0.06475	 0.00111	 100.0	 100.0	 100.0	 0.0	 0.0	 1	 -30.0	 30.0;
	39883	 43292	 0.0718257	 0.203	 0.00387	 73.75	 73.75	 73.75	 0.0	 0.0	 1	 -30.0	 30.0;
	39883	 43294	 0.0895111	 0.25811	 0.00472	 73.75	 73.75	 73.75	 0.0	 0.0	 1	 -30.0	 30.0;
	39883	 43398	 0.176246	 0.53302	 0.00887	 73.75	 73.75	 73.75	 0.0	 0.0	 1	 -30.0	 30.0;
	39883	 43554	 0.131174	 0.40161	 0.00651	 73.75	 73.75	 73.75	 0.0	 0.0	 1	 -30.0	 30.0;
	39884	 43409	 0.0218993	 0.10372	 0.00173	 100.0	 100.0	 100.0	 0.0	 0.0	 1	 -30.0	 30.0;
	39884	 43412	 0.025415	 0.07679	 0.00128	 73.75	 73.75	 73.75	 0.0	 0.0	 1	 -30.0	 30.0;
	39884	 43414	 0.0300561	 0.08493	 0.00162	 73.75	 73.75	 73.75	 0.0	 0.0	 1	 -30.0	 30.0;
	39885	 43761	 0.194481	 0.60279	 0.00954	 73.75	 73.75	 73.75	 0.0	 0.0	 1	 -30.0	 30.0;
	39885	 43901	 0.0262036	 0.09035	 0.00115	 73.75	 73.75	 73.75	 0.0	 0.0	 1	 -30.0	 30.0;
	39885	 43904	 0.0578614	 0.17708	 0.00287	 73.75	 73.75	 73.75	 0.0	 0.0	 1	 -30.0	 30.0;
	39885	 43988	 0.114786	 0.39191	 0.00509	 73.75	 73.75	 73.75	 0.0	 0.0	 1	 -30.0	 30.0;
	39886	 43390	 0.0985796	 0.3053	 0.00483	 73.75	 73.75	 73.75	 0.0	 0.0	 1	 -30.0	 30.0;
	39886	 43391	 0.0671107	 0.21594	 0.00316	 73.75	 73.75	 73.75	 0.0	 0.0	 1	 -30.0	 30.0;
	39886	 43394	 0.0585432	 0.18126	 0.00287	 73.75	 73.75	 73.75	 0.0	 0.0	 1	 -30.0	 30.0;
	39886	 43937	 0.0790132	 0.24467	 0.00387	 73.75	 73.75	 73.75	 0.0	 0.0	 1	 -30.0	 30.0;
	39887	 43562	 0.0255054	 0.07352	 0.00134	 73.75	 73.75	 73.75	 0.0	 0.0	 1	 -30.0	 30.0;
	39887	 44076	 0.0810832	 0.25378	 0.00393	 73.75	 73.75	 73.75	 0.0	 0.0	 1	 -30.0	 30.0;
	39887	 44077	 0.0791118	 0.2281	 0.00417	 73.75	 73.75	 73.75	 0.0	 0.0	 1	 -30.0	 30.0;
	39888	 43600	 0.211025	 0.58352	 0.01166	 73.75	 73.75	 73.75	 0.0	 0.0	 1	 -30.0	 30.0;
	39888	 43738	 0.120118	 0.36774	 0.00596	 73.75	 73.75	 73.75	 0.0	 0.0	 1	 -30.0	 30.0;
	39889	 43565	 0.156991	 0.40835	 0.00923	 73.75	 73.75	 73.75	 0.0	 0.0	 1	 -30.0	 30.0;
	39889	 43567	 0.0918029	 0.27363	 0.00468	 73.75	 73.75	 73.75	 0.0	 0.0	 1	 -30.0	 30.0;
	39889	 44015	 0.0530479	 0.1603	 0.00266	 73.75	 73.75	 73.75	 0.0	 0.0	 1	 -30.0	 30.0;
	39889	 44016	 0.0825371	 0.25559	 0.00404	 73.75	 73.75	 73.75	 0.0	 0.0	 1	 -30.0	 30.0;
	39890	 43755	 0.00491214	 0.04079	 0.07351	 458.0	 458.0	 458.0	 0.0	 0.0	 1	 -30.0	 30.0;
	39890	 76797	 0.00680964	 0.0852	 0.16798	 592.0	 592.0	 592.0	 0.0	 0.0	 1	 -30.0	 30.0;
	39890	 76953	 0.00607036	 0.05091	 0.08997	 458.0	 458.0	 458.0	 0.0	 0.0	 1	 -30.0	 30.0;
	39891	 42755	 0.00161821	 0.00589	 0.00133	 160.0	 160.0	 160.0	 0.0	 0.0	 1	 -30.0	 30.0;
	39891	 77043	 0.0001725	 0.00326	 0.00221	 813.0	 813.0	 813.0	 0.0	 0.0	 1	 -30.0	 30.0;
	39892	 43836	 0.0240104	 0.07433	 0.00118	 73.75	 73.75	 73.75	 0.0	 0.0	 1	 -30.0	 30.0;
	39892	 43851	 0.00280929	 0.00793	 0.00015	 86.25	 86.25	 86.25	 0.0	 0.0	 1	 -30.0	 30.0;
	39892	 43852	 0.0106868	 0.03647	 0.00047	 73.75	 73.75	 73.75	 0.0	 0.0	 1	 -30.0	 30.0;
	39893	 41961	 0.0108839	 0.03288	 0.00055	 73.75	 73.75	 73.75	 0.0	 0.0	 1	 -30.0	 30.0;
	39893	 43660	 0.00561857	 0.01552	 0.00031	 73.75	 73.75	 73.75	 0.0	 0.0	 1	 -30.0	 30.0;
	39894	 43376	 0.157657	 0.41008	 0.00926	 73.75	 73.75	 73.75	 0.0	 0.0	 1	 -30.0	 30.0;
	39894	 43421	 0.0475854	 0.15311	 0.00224	 73.75	 73.75	 73.75	 0.0	 0.0	 1	 -30.0	 30.0;
	39895	 43491	 0.0586418	 0.16194	 0.00323	 73.75	 73.75	 73.75	 0.0	 0.0	 1	 -30.0	 30.0;
	39896	 43491	 0.0197636	 0.06235	 0.00118	 80.0	 80.0	 80.0	 0.0	 0.0	 1	 -30.0	 30.0;
	39896	 43492	 0.0866689	 0.27128	 0.0042	 73.75	 73.75	 73.75	 0.0	 0.0	 1	 -30.0	 30.0;
	39896	 43494	 0.117604	 0.33247	 0.00633	 73.75	 73.75	 73.75	 0.0	 0.0	 1	 -30.0	 30.0;
	39897	 43451	 0.0282818	 0.08429	 0.00144	 73.75	 73.75	 73.75	 0.0	 0.0	 1	 -30.0	 30.0;
	39897	 43454	 0.0973557	 0.29802	 0.00483	 73.75	 73.75	 73.75	 0.0	 0.0	 1	 -30.0	 30.0;
	39898	 43425	 0.178045	 0.62553	 0.00768	 73.75	 73.75	 73.75	 0.0	 0.0	 1	 -30.0	 30.0;
	39898	 43582	 0.0267539	 0.08187	 0.00133	 73.75	 73.75	 73.75	 0.0	 0.0	 1	 -30.0	 30.0;
	39898	 43753	 0.139889	 0.4171	 0.00714	 73.75	 73.75	 73.75	 0.0	 0.0	 1	 -30.0	 30.0;
	39898	 44468	 0.138895	 0.40063	 0.00733	 73.75	 73.75	 73.75	 0.0	 0.0	 1	 -30.0	 30.0;
	39899	 43561	 0.00358143	 0.0112	 0.00017	 73.75	 73.75	 73.75	 0.0	 0.0	 1	 -30.0	 30.0;
	39900	 43719	 0.169921	 0.46963	 0.00938	 73.75	 73.75	 73.75	 0.0	 0.0	 1	 -30.0	 30.0;
	39900	 44029	 0.021735	 0.0565	 0.00128	 73.75	 73.75	 73.75	 0.0	 0.0	 1	 -30.0	 30.0;
	39901	 43682	 0.00463286	 0.01596	 0.0002	 73.75	 73.75	 73.75	 0.0	 0.0	 1	 -30.0	 30.0;
	39901	 43689	 0.00311321	 0.00973	 0.00015	 73.75	 73.75	 73.75	 0.0	 0.0	 1	 -30.0	 30.0;
	39902	 43431	 0.0326107	 0.09401	 0.00172	 73.75	 73.75	 73.75	 0.0	 0.0	 1	 -30.0	 30.0;
	39902	 43491	 0.109135	 0.31471	 0.00576	 73.75	 73.75	 73.75	 0.0	 0.0	 1	 -30.0	 30.0;
	39902	 43778	 0.171358	 0.51823	 0.00862	 73.75	 73.75	 73.75	 0.0	 0.0	 1	 -30.0	 30.0;
	39903	 43418	 0.0681539	 0.19263	 0.00367	 73.75	 73.75	 73.75	 0.0	 0.0	 1	 -30.0	 30.0;
	39903	 43432	 0.131108	 0.37068	 0.00706	 73.75	 73.75	 73.75	 0.0	 0.0	 1	 -30.0	 30.0;
	39904	 44075	 0.0682196	 0.23744	 0.00296	 73.75	 73.75	 73.75	 0.0	 0.0	 1	 -30.0	 30.0;
	39904	 44109	 0.0140957	 0.03663	 0.00083	 73.75	 73.75	 73.75	 0.0	 0.0	 1	 -30.0	 30.0;
	39905	 44108	 0.0756618	 0.21384	 0.00407	 73.75	 73.75	 73.75	 0.0	 0.0	 1	 -30.0	 30.0;
	39905	 44109	 0.0315018	 0.09388	 0.00161	 73.75	 73.75	 73.75	 0.0	 0.0	 1	 -30.0	 30.0;
	39905	 44110	 0.0586254	 0.19432	 0.00268	 73.75	 73.75	 73.75	 0.0	 0.0	 1	 -30.0	 30.0;
	39906	 43006	 0.199114	 0.60236	 0.01002	 73.75	 73.75	 73.75	 0.0	 0.0	 1	 -30.0	 30.0;
	39906	 43480	 0.0406279	 0.11712	 0.00214	 73.75	 73.75	 73.75	 0.0	 0.0	 1	 -30.0	 30.0;
	39906	 43485	 0.0229589	 0.06487	 0.00124	 73.75	 73.75	 73.75	 0.0	 0.0	 1	 -30.0	 30.0;
	39906	 43490	 0.0594879	 0.20882	 0.00256	 73.75	 73.75	 73.75	 0.0	 0.0	 1	 -30.0	 30.0;
	39906	 43653	 0.119091	 0.38938	 0.00552	 73.75	 73.75	 73.75	 0.0	 0.0	 1	 -30.0	 30.0;
	39907	 43486	 0.008165	 0.02555	 0.0004	 73.75	 73.75	 73.75	 0.0	 0.0	 1	 -30.0	 30.0;
	39908	 43858	 0.0328	 0.10264	 0.00159	 73.75	 73.75	 73.75	 0.0	 0.0	 1	 -30.0	 30.0;
	39908	 43869	 0.020749	 0.06425	 0.00102	 73.75	 73.75	 73.75	 0.0	 0.0	 1	 -30.0	 30.0;
	39908	 43893	 0.0285036	 0.10657	 0.00115	 73.75	 73.75	 73.75	 0.0	 0.0	 1	 -30.0	 30.0;
	39908	 43897	 0.006621	 0.01974	 0.00034	 73.75	 73.75	 73.75	 0.0	 0.0	 1	 -30.0	 30.0;
	39909	 43440	 0.000484643	 0.00817	 0.00018	 194.0	 194.0	 194.0	 0.0	 0.0	 1	 -30.0	 30.0;
	39909	 43442	 0.0284707	 0.08816	 0.00139	 73.75	 73.75	 73.75	 0.0	 0.0	 1	 -30.0	 30.0;
	39909	 43443	 0.0177429	 0.05286	 0.0009	 73.75	 73.75	 73.75	 0.0	 0.0	 1	 -30.0	 30.0;
	39910	 43423	 0.0738382	 0.22315	 0.00371	 73.75	 73.75	 73.75	 0.0	 0.0	 1	 -30.0	 30.0;
	39910	 43535	 0.0783807	 0.24532	 0.0038	 73.75	 73.75	 73.75	 0.0	 0.0	 1	 -30.0	 30.0;
	39910	 43537	 0.0373996	 0.1057	 0.00201	 73.75	 73.75	 73.75	 0.0	 0.0	 1	 -30.0	 30.0;
	39911	 43614	 0.00414	 0.0117	 0.00022	 73.75	 73.75	 73.75	 0.0	 0.0	 1	 -30.0	 30.0;
	39911	 43629	 0.0120339	 0.03469	 0.00063	 73.75	 73.75	 73.75	 0.0	 0.0	 1	 -30.0	 30.0;
	39911	 43630	 0.00669464	 0.01931	 0.00035	 73.75	 73.75	 73.75	 0.0	 0.0	 1	 -30.0	 30.0;
	39912	 43329	 0.0234846	 0.0677	 0.00124	 73.75	 73.75	 73.75	 0.0	 0.0	 1	 -30.0	 30.0;
	39912	 43332	 0.0279779	 0.08754	 0.00135	 73.75	 73.75	 73.75	 0.0	 0.0	 1	 -30.0	 30.0;
	39912	 43346	 0.0239939	 0.07953	 0.0011	 73.75	 73.75	 73.75	 0.0	 0.0	 1	 -30.0	 30.0;
	39912	 43353	 0.0224332	 0.07021	 0.00109	 73.75	 73.75	 73.75	 0.0	 0.0	 1	 -30.0	 30.0;
	39912	 43354	 0.0353214	 0.11053	 0.00171	 73.75	 73.75	 73.75	 0.0	 0.0	 1	 -30.0	 30.0;
	39913	 43646	 0.117867	 0.33321	 0.00635	 73.75	 73.75	 73.75	 0.0	 0.0	 1	 -30.0	 30.0;
	39913	 44076	 0.0324957	 0.09184	 0.00175	 73.75	 73.75	 73.75	 0.0	 0.0	 1	 -30.0	 30.0;
	39914	 39927	 8.21429e-06	 8e-05	 0.0	 194.0	 194.0	 194.0	 0.0	 0.0	 1	 -30.0	 30.0;
	39914	 43744	 0.0152786	 0.04731	 0.00075	 73.75	 73.75	 73.75	 0.0	 0.0	 1	 -30.0	 30.0;
	39915	 43309	 0.0278382	 0.07687	 0.00153	 73.75	 73.75	 73.75	 0.0	 0.0	 1	 -30.0	 30.0;
	39915	 43401	 0.0802536	 0.20863	 0.00471	 73.75	 73.75	 73.75	 0.0	 0.0	 1	 -30.0	 30.0;
	39916	 43302	 0.0560954	 0.14581	 0.00329	 73.75	 73.75	 73.75	 0.0	 0.0	 1	 -30.0	 30.0;
	39916	 43304	 0.000969286	 0.00322	 4e-05	 73.75	 73.75	 73.75	 0.0	 0.0	 1	 -30.0	 30.0;
	39916	 43305	 0.00275179	 0.04726	 0.00101	 194.0	 194.0	 194.0	 0.0	 0.0	 1	 -30.0	 30.0;
	39917	 43388	 0.0574343	 0.14929	 0.00337	 73.75	 73.75	 73.75	 0.0	 0.0	 1	 -30.0	 30.0;
	39917	 44072	 0.155652	 0.43015	 0.00859	 73.75	 73.75	 73.75	 0.0	 0.0	 1	 -30.0	 30.0;
	39918	 44049	 0.00722857	 0.02154	 0.00037	 73.75	 73.75	 73.75	 0.0	 0.0	 1	 -30.0	 30.0;
	39918	 44051	 0.00800071	 0.02528	 0.00038	 73.75	 73.75	 73.75	 0.0	 0.0	 1	 -30.0	 30.0;
	39918	 44054	 0.0727868	 0.20986	 0.00384	 73.75	 73.75	 73.75	 0.0	 0.0	 1	 -30.0	 30.0;
	39919	 41960	 0.0665357	 0.17296	 0.00391	 73.75	 73.75	 73.75	 0.0	 0.0	 1	 -30.0	 30.0;
	39919	 43659	 0.00772964	 0.03579	 0.00043	 88.75	 88.75	 88.75	 0.0	 0.0	 1	 -30.0	 30.0;
	39919	 43660	 0.00998036	 0.03122	 0.00048	 73.75	 73.75	 73.75	 0.0	 0.0	 1	 -30.0	 30.0;
	39920	 43747	 0.0938646	 0.30748	 0.00539	 80.0	 80.0	 80.0	 0.0	 0.0	 1	 -30.0	 30.0;
	39920	 43922	 0.00417286	 0.07542	 0.00145	 194.0	 194.0	 194.0	 0.0	 0.0	 1	 -30.0	 30.0;
	39920	 43924	 0.00470679	 0.07329	 0.00191	 194.0	 194.0	 194.0	 0.0	 0.0	 1	 -30.0	 30.0;
	39921	 44004	 0.00192214	 0.00601	 9e-05	 73.75	 73.75	 73.75	 0.0	 0.0	 1	 -30.0	 30.0;
	39921	 44007	 0.00750786	 0.02324	 0.00037	 73.75	 73.75	 73.75	 0.0	 0.0	 1	 -30.0	 30.0;
	39922	 43407	 0.0396011	 0.11801	 0.00202	 73.75	 73.75	 73.75	 0.0	 0.0	 1	 -30.0	 30.0;
	39922	 44108	 0.10925	 0.33835	 0.00535	 73.75	 73.75	 73.75	 0.0	 0.0	 1	 -30.0	 30.0;
	39923	 43491	 0.011155	 0.03413	 0.00055	 73.75	 73.75	 73.75	 0.0	 0.0	 1	 -30.0	 30.0;
	39924	 43414	 0.0454414	 0.13099	 0.0024	 73.75	 73.75	 73.75	 0.0	 0.0	 1	 -30.0	 30.0;
	39924	 43561	 0.0607282	 0.15785	 0.00356	 73.75	 73.75	 73.75	 0.0	 0.0	 1	 -30.0	 30.0;
	39925	 43876	 0.00449321	 0.01375	 0.00356	 148.0	 148.0	 148.0	 0.0	 0.0	 1	 -30.0	 30.0;
	39926	 43297	 0.0343111	 0.10223	 0.00175	 73.75	 73.75	 73.75	 0.0	 0.0	 1	 -30.0	 30.0;
	39926	 43300	 0.0966411	 0.26694	 0.00533	 73.75	 73.75	 73.75	 0.0	 0.0	 1	 -30.0	 30.0;
	39926	 45587	 0.0524975	 0.17158	 0.00243	 73.75	 73.75	 73.75	 0.0	 0.0	 1	 -30.0	 30.0;
	39927	 43931	 0.167645	 0.50699	 0.00843	 73.75	 73.75	 73.75	 0.0	 0.0	 1	 -30.0	 30.0;
	39928	 44005	 0.00234929	 0.0071	 0.00012	 73.75	 73.75	 73.75	 0.0	 0.0	 1	 -30.0	 30.0;
	39929	 43533	 0.0265979	 0.0898	 0.00119	 73.75	 73.75	 73.75	 0.0	 0.0	 1	 -30.0	 30.0;
	39930	 43340	 0.00598821	 0.01784	 0.00031	 73.75	 73.75	 73.75	 0.0	 0.0	 1	 -30.0	 30.0;
	39930	 43341	 0.00400857	 0.01042	 0.00024	 73.75	 73.75	 73.75	 0.0	 0.0	 1	 -30.0	 30.0;
	39931	 43557	 0.0805082	 0.22754	 0.00433	 73.75	 73.75	 73.75	 0.0	 0.0	 1	 -30.0	 30.0;
	39931	 43564	 0.205472	 0.53474	 0.01209	 73.75	 73.75	 73.75	 0.0	 0.0	 1	 -30.0	 30.0;
	39931	 44113	 0.09039	 0.26941	 0.00461	 73.75	 73.75	 73.75	 0.0	 0.0	 1	 -30.0	 30.0;
	39931	 44115	 0.111854	 0.36569	 0.00518	 73.75	 73.75	 73.75	 0.0	 0.0	 1	 -30.0	 30.0;
	39932	 77096	 0.00589786	 0.01804	 0.00467	 148.0	 148.0	 148.0	 0.0	 0.0	 1	 -30.0	 30.0;
	39932	 77098	 0.0167161	 0.05232	 0.01296	 148.0	 148.0	 148.0	 0.0	 0.0	 1	 -30.0	 30.0;
	39933	 42026	 0.0483575	 0.14612	 0.00243	 73.75	 73.75	 73.75	 0.0	 0.0	 1	 -30.0	 30.0;
	39933	 43496	 0.00273536	 0.00826	 0.00014	 73.75	 73.75	 73.75	 0.0	 0.0	 1	 -30.0	 30.0;
	39933	 43501	 0.00818143	 0.02561	 0.0004	 73.75	 73.75	 73.75	 0.0	 0.0	 1	 -30.0	 30.0;
	39933	 43515	 0.0446611	 0.12621	 0.0024	 73.75	 73.75	 73.75	 0.0	 0.0	 1	 -30.0	 30.0;
	39934	 43729	 0.000648929	 0.00679	 0.00193	 327.0	 327.0	 327.0	 0.0	 0.0	 1	 -30.0	 30.0;
	39934	 43730	 0.00128143	 0.00558	 0.00282	 294.0	 294.0	 294.0	 0.0	 0.0	 1	 -30.0	 30.0;
	39935	 43752	 0.0678336	 0.17633	 0.00398	 73.75	 73.75	 73.75	 0.0	 0.0	 1	 -30.0	 30.0;
	39935	 44108	 0.0381389	 0.11365	 0.00194	 73.75	 73.75	 73.75	 0.0	 0.0	 1	 -30.0	 30.0;
	39935	 44110	 0.0352557	 0.10654	 0.00177	 73.75	 73.75	 73.75	 0.0	 0.0	 1	 -30.0	 30.0;
	39936	 43729	 0.00204536	 0.00641	 0.00159	 148.0	 148.0	 148.0	 0.0	 0.0	 1	 -30.0	 30.0;
	39936	 43730	 0.00046	 0.00313	 0.00093	 257.0	 257.0	 257.0	 0.0	 0.0	 1	 -30.0	 30.0;
	39937	 43766	 0.0180468	 0.05523	 0.01431	 148.0	 148.0	 148.0	 0.0	 0.0	 1	 -30.0	 30.0;
	39937	 76961	 0.00499429	 0.06006	 0.0206	 384.0	 384.0	 384.0	 0.0	 0.0	 1	 -30.0	 30.0;
	39938	 42785	 0.0140793	 0.05135	 0.01157	 160.0	 160.0	 160.0	 0.0	 0.0	 1	 -30.0	 30.0;
	39938	 76961	 0.00167571	 0.02946	 0.00935	 480.0	 480.0	 480.0	 0.0	 0.0	 1	 -30.0	 30.0;
	39939	 43575	 0.0627407	 0.19427	 0.00307	 73.75	 73.75	 73.75	 0.0	 0.0	 1	 -30.0	 30.0;
	39939	 43577	 0.00284214	 0.00785	 0.00016	 73.75	 73.75	 73.75	 0.0	 0.0	 1	 -30.0	 30.0;
	39940	 43342	 0.00639071	 0.01874	 0.00033	 73.75	 73.75	 73.75	 0.0	 0.0	 1	 -30.0	 30.0;
	39940	 43347	 0.02346	 0.06991	 0.0012	 73.75	 73.75	 73.75	 0.0	 0.0	 1	 -30.0	 30.0;
	39941	 43431	 0.0122804	 0.03843	 0.00059	 73.75	 73.75	 73.75	 0.0	 0.0	 1	 -30.0	 30.0;
	39942	 43930	 0.00961893	 0.02719	 0.00052	 73.75	 73.75	 73.75	 0.0	 0.0	 1	 -30.0	 30.0;
	39943	 43696	 0.0116396	 0.03643	 0.00056	 73.75	 73.75	 73.75	 0.0	 0.0	 1	 -30.0	 30.0;
	39943	 43697	 0.0120339	 0.03587	 0.00061	 73.75	 73.75	 73.75	 0.0	 0.0	 1	 -30.0	 30.0;
	39943	 43706	 0.0274111	 0.08168	 0.0014	 73.75	 73.75	 73.75	 0.0	 0.0	 1	 -30.0	 30.0;
	39944	 43690	 0.00294071	 0.00921	 0.00014	 73.75	 73.75	 73.75	 0.0	 0.0	 1	 -30.0	 30.0;
	39944	 43694	 0.00667	 0.01884	 0.00036	 73.75	 73.75	 73.75	 0.0	 0.0	 1	 -30.0	 30.0;
	39945	 43379	 0.0693039	 0.2443	 0.00297	 73.75	 73.75	 73.75	 0.0	 0.0	 1	 -30.0	 30.0;
	39945	 43381	 0.0561118	 0.17373	 0.00275	 73.75	 73.75	 73.75	 0.0	 0.0	 1	 -30.0	 30.0;
	39945	 43421	 0.0870468	 0.25944	 0.00444	 73.75	 73.75	 73.75	 0.0	 0.0	 1	 -30.0	 30.0;
	39945	 44103	 0.19771	 0.6128	 0.0097	 73.75	 73.75	 73.75	 0.0	 0.0	 1	 -30.0	 30.0;
	39946	 43560	 0.0613607	 0.17342	 0.0033	 73.75	 73.75	 73.75	 0.0	 0.0	 1	 -30.0	 30.0;
	39946	 44077	 0.00716286	 0.02304	 0.00034	 73.75	 73.75	 73.75	 0.0	 0.0	 1	 -30.0	 30.0;
	39947	 43557	 0.00772964	 0.02184	 0.00042	 73.75	 73.75	 73.75	 0.0	 0.0	 1	 -30.0	 30.0;
	39948	 43617	 0.0266964	 0.09014	 0.0012	 73.75	 73.75	 73.75	 0.0	 0.0	 1	 -30.0	 30.0;
	39948	 43618	 0.0102514	 0.02664	 0.0006	 73.75	 73.75	 73.75	 0.0	 0.0	 1	 -30.0	 30.0;
	39948	 43619	 0.00342536	 0.00945	 0.00019	 73.75	 73.75	 73.75	 0.0	 0.0	 1	 -30.0	 30.0;
	39948	 43629	 0.000345	 0.00526	 0.00014	 194.0	 194.0	 194.0	 0.0	 0.0	 1	 -30.0	 30.0;
	39949	 43429	 0.0436836	 0.13672	 0.00212	 73.75	 73.75	 73.75	 0.0	 0.0	 1	 -30.0	 30.0;
	39949	 43790	 0.0329886	 0.09323	 0.00178	 73.75	 73.75	 73.75	 0.0	 0.0	 1	 -30.0	 30.0;
	39950	 43541	 0.0462054	 0.13769	 0.00235	 73.75	 73.75	 73.75	 0.0	 0.0	 1	 -30.0	 30.0;
	39950	 43782	 0.00370464	 0.01191	 0.00017	 73.75	 73.75	 73.75	 0.0	 0.0	 1	 -30.0	 30.0;
	39950	 43783	 0.0122721	 0.03468	 0.00066	 73.75	 73.75	 73.75	 0.0	 0.0	 1	 -30.0	 30.0;
	39951	 43725	 0.0730661	 0.21775	 0.00372	 73.75	 73.75	 73.75	 0.0	 0.0	 1	 -30.0	 30.0;
...